MODEL 1
REMARK VINA RESULT:    -8.332      0.000      0.000
REMARK INTER + INTRA:         -11.083
REMARK INTER:                 -10.280
REMARK INTRA:                  -0.803
REMARK UNBOUND:                -0.803
REMARK  Name = ligand_1
REMARK                            x       y       z     vdW  Elec       q    Type
REMARK                         _______ _______ _______ _____ _____    ______ ____
ROOT
ATOM      2  N   LIG    1       50.046  61.774  38.483  0.00  0.00    -0.305 N 
ATOM      3  C   LIG    1       50.116  63.155  38.951  0.00  0.00    +0.108 C 
ATOM      4  C   LIG    1       51.331  63.837  38.313  0.00  0.00    +0.094 C 
ATOM      5  N   LIG    1       51.294  63.670  36.852  0.00  0.00    -0.270 NA
ATOM     18  C   LIG    1       51.207  62.291  36.387  0.00  0.00    +0.094 C 
ATOM     19  C   LIG    1       49.992  61.618  37.022  0.00  0.00    +0.108 C 
ENDROOT
BRANCH   2   1
ATOM      1  C   LIG    1       49.224  60.883  39.257  0.00  0.00    +0.051 A 
ATOM     20  C   LIG    1       49.762  59.811  40.008  0.00  0.00    +0.031 A 
ATOM     21  C   LIG    1       51.112  59.478  39.946  0.00  0.00    +0.003 A 
ATOM     22  C   LIG    1       51.616  58.415  40.691  0.00  0.00    +0.000 A 
ATOM     23  C   LIG    1       50.779  57.658  41.512  0.00  0.00    +0.002 A 
ATOM     24  C   LIG    1       49.427  57.979  41.588  0.00  0.00    +0.019 A 
ATOM     25  C   LIG    1       48.929  59.043  40.844  0.00  0.00    +0.082 A 
ATOM     26  N   LIG    1       47.616  59.313  40.931  0.00  0.00    -0.241 NA
ATOM     27  C   LIG    1       47.059  60.321  40.228  0.00  0.00    +0.154 A 
ATOM     32  C   LIG    1       47.847  61.131  39.394  0.00  0.00    +0.038 A 
BRANCH  27  28
ATOM     28  C   LIG    1       45.584  60.506  40.460  0.00  0.00    +0.435 C 
ATOM     29  F   LIG    1       45.373  61.735  40.886  0.00  0.00    -0.164 F 
ATOM     30  F   LIG    1       45.042  59.626  41.281  0.00  0.00    -0.164 F 
ATOM     31  F   LIG    1       45.004  60.389  39.285  0.00  0.00    -0.164 F 
ENDBRANCH  27  28
ENDBRANCH   2   1
BRANCH   5   6
ATOM      6  C   LIG    1       52.493  64.304  36.234  0.00  0.00    +0.077 C 
ATOM      7  C   LIG    1       53.777  64.058  37.041  0.00  0.00    +0.044 C 
ATOM      8  C   LIG    1       54.905  64.158  36.013  0.00  0.00    +0.150 C 
ATOM     16  N   LIG    1       54.272  63.793  34.750  0.00  0.00    -0.209 NA
ATOM     17  C   LIG    1       52.823  63.688  34.865  0.00  0.00    +0.105 C 
BRANCH   8   9
ATOM      9  C   LIG    1       56.112  63.308  36.359  0.00  0.00    +0.242 C 
ATOM     10  O   LIG    1       56.220  62.182  35.873  0.00  0.00    -0.273 OA
ATOM     11  N   LIG    1       57.036  63.863  37.156  0.00  0.00    -0.268 N 
ATOM     12  C   LIG    1       56.836  65.210  37.707  0.00  0.00    +0.106 C 
ATOM     13  C   LIG    1       58.020  65.652  38.573  0.00  0.00    +0.081 C 
ATOM     14  S   LIG    1       58.854  64.181  38.940  0.00  0.00    -0.117 S 
ATOM     15  C   LIG    1       58.292  63.218  37.562  0.00  0.00    +0.152 C 
ENDBRANCH   8   9
ENDBRANCH   5   6
TORSDOF 4
ENDMDL
