MODEL 6
REMARK VINA RESULT:    -7.364      5.647      7.352
REMARK INTER + INTRA:          -9.890
REMARK INTER:                  -9.735
REMARK INTRA:                  -0.155
REMARK UNBOUND:                -0.803
REMARK  Name = ligand_1
REMARK                            x       y       z     vdW  Elec       q    Type
REMARK                         _______ _______ _______ _____ _____    ______ ____
ROOT
ATOM      2  N   LIG    1       54.645  58.467  38.256  0.00  0.00    -0.305 N 
ATOM      3  C   LIG    1       53.408  58.492  37.481  0.00  0.00    +0.108 C 
ATOM      4  C   LIG    1       53.148  59.923  37.000  0.00  0.00    +0.094 C 
ATOM      5  N   LIG    1       54.335  60.445  36.305  0.00  0.00    -0.270 NA
ATOM     18  C   LIG    1       55.572  60.404  37.074  0.00  0.00    +0.094 C 
ATOM     19  C   LIG    1       55.829  58.975  37.547  0.00  0.00    +0.108 C 
ENDROOT
BRANCH   2   1
ATOM      1  C   LIG    1       54.843  57.320  39.101  0.00  0.00    +0.051 A 
ATOM     20  C   LIG    1       55.561  56.178  38.676  0.00  0.00    +0.031 A 
ATOM     21  C   LIG    1       56.018  56.043  37.368  0.00  0.00    +0.003 A 
ATOM     22  C   LIG    1       56.719  54.907  36.974  0.00  0.00    +0.000 A 
ATOM     23  C   LIG    1       56.975  53.875  37.879  0.00  0.00    +0.002 A 
ATOM     24  C   LIG    1       56.528  53.994  39.191  0.00  0.00    +0.019 A 
ATOM     25  C   LIG    1       55.831  55.133  39.581  0.00  0.00    +0.082 A 
ATOM     26  N   LIG    1       55.401  55.205  40.852  0.00  0.00    -0.241 NA
ATOM     27  C   LIG    1       54.707  56.272  41.298  0.00  0.00    +0.154 A 
ATOM     32  C   LIG    1       54.428  57.351  40.444  0.00  0.00    +0.038 A 
BRANCH  27  28
ATOM     28  C   LIG    1       54.324  56.207  42.752  0.00  0.00    +0.435 C 
ATOM     29  F   LIG    1       53.069  56.586  42.876  0.00  0.00    -0.164 F 
ATOM     30  F   LIG    1       55.106  56.901  43.557  0.00  0.00    -0.164 F 
ATOM     31  F   LIG    1       54.391  54.939  43.098  0.00  0.00    -0.164 F 
ENDBRANCH  27  28
ENDBRANCH   2   1
BRANCH   5   6
ATOM      6  C   LIG    1       54.094  61.848  35.867  0.00  0.00    +0.077 C 
ATOM      7  C   LIG    1       53.266  61.934  34.575  0.00  0.00    +0.044 C 
ATOM      8  C   LIG    1       52.580  63.298  34.645  0.00  0.00    +0.150 C 
ATOM     16  N   LIG    1       52.484  63.578  36.074  0.00  0.00    -0.209 NA
ATOM     17  C   LIG    1       53.235  62.623  36.878  0.00  0.00    +0.105 C 
BRANCH   8   9
ATOM      9  C   LIG    1       51.246  63.339  33.924  0.00  0.00    +0.242 C 
ATOM     10  O   LIG    1       50.534  62.336  33.910  0.00  0.00    -0.273 OA
ATOM     11  N   LIG    1       50.892  64.507  33.371  0.00  0.00    -0.268 N 
ATOM     12  C   LIG    1       51.798  65.662  33.419  0.00  0.00    +0.106 C 
ATOM     13  C   LIG    1       51.187  66.894  32.744  0.00  0.00    +0.081 C 
ATOM     14  S   LIG    1       49.904  66.257  31.773  0.00  0.00    -0.117 S 
ATOM     15  C   LIG    1       49.622  64.757  32.675  0.00  0.00    +0.152 C 
ENDBRANCH   8   9
ENDBRANCH   5   6
TORSDOF 4
ENDMDL
