MODEL 8
REMARK VINA RESULT:    -7.270      5.609      7.925
REMARK INTER + INTRA:          -9.773
REMARK INTER:                  -9.060
REMARK INTRA:                  -0.713
REMARK UNBOUND:                -0.803
REMARK  Name = ligand_1
REMARK                            x       y       z     vdW  Elec       q    Type
REMARK                         _______ _______ _______ _____ _____    ______ ____
ROOT
ATOM      2  N   LIG    1       52.097  62.585  35.114  0.00  0.00    -0.305 N 
ATOM      3  C   LIG    1       53.257  63.364  35.535  0.00  0.00    +0.108 C 
ATOM      4  C   LIG    1       54.007  62.593  36.627  0.00  0.00    +0.094 C 
ATOM      5  N   LIG    1       54.300  61.226  36.169  0.00  0.00    -0.270 NA
ATOM     18  C   LIG    1       53.142  60.456  35.733  0.00  0.00    +0.094 C 
ATOM     19  C   LIG    1       52.402  61.226  34.642  0.00  0.00    +0.108 C 
ENDROOT
BRANCH   2   1
ATOM      1  C   LIG    1       51.076  63.302  34.397  0.00  0.00    +0.051 A 
ATOM     20  C   LIG    1       49.697  63.041  34.572  0.00  0.00    +0.031 A 
ATOM     21  C   LIG    1       49.245  61.985  35.361  0.00  0.00    +0.003 A 
ATOM     22  C   LIG    1       47.882  61.747  35.513  0.00  0.00    +0.000 A 
ATOM     23  C   LIG    1       46.939  62.555  34.875  0.00  0.00    +0.002 A 
ATOM     24  C   LIG    1       47.373  63.615  34.086  0.00  0.00    +0.019 A 
ATOM     25  C   LIG    1       48.736  63.851  33.939  0.00  0.00    +0.082 A 
ATOM     26  N   LIG    1       49.117  64.875  33.156  0.00  0.00    -0.241 NA
ATOM     27  C   LIG    1       50.422  65.156  32.956  0.00  0.00    +0.154 A 
ATOM     32  C   LIG    1       51.421  64.392  33.579  0.00  0.00    +0.038 A 
BRANCH  27  28
ATOM     28  C   LIG    1       50.676  66.349  32.075  0.00  0.00    +0.435 C 
ATOM     29  F   LIG    1       51.578  67.117  32.652  0.00  0.00    -0.164 F 
ATOM     30  F   LIG    1       49.598  67.044  31.766  0.00  0.00    -0.164 F 
ATOM     31  F   LIG    1       51.205  65.885  30.963  0.00  0.00    -0.164 F 
ENDBRANCH  27  28
ENDBRANCH   2   1
BRANCH   5   6
ATOM      6  C   LIG    1       54.999  60.466  37.242  0.00  0.00    +0.077 C 
ATOM      7  C   LIG    1       54.092  59.433  37.927  0.00  0.00    +0.044 C 
ATOM      8  C   LIG    1       55.050  58.366  38.456  0.00  0.00    +0.150 C 
ATOM     16  N   LIG    1       56.204  58.448  37.567  0.00  0.00    -0.209 NA
ATOM     17  C   LIG    1       56.141  59.603  36.681  0.00  0.00    +0.105 C 
BRANCH   8   9
ATOM      9  C   LIG    1       54.432  56.982  38.526  0.00  0.00    +0.242 C 
ATOM     10  O   LIG    1       54.060  56.431  37.491  0.00  0.00    -0.273 OA
ATOM     11  N   LIG    1       54.368  56.408  39.735  0.00  0.00    -0.268 N 
ATOM     12  C   LIG    1       54.824  57.130  40.931  0.00  0.00    +0.106 C 
ATOM     13  C   LIG    1       54.677  56.282  42.199  0.00  0.00    +0.081 C 
ATOM     14  S   LIG    1       53.571  55.029  41.749  0.00  0.00    -0.117 S 
ATOM     15  C   LIG    1       53.851  55.058  39.998  0.00  0.00    +0.152 C 
ENDBRANCH   8   9
ENDBRANCH   5   6
TORSDOF 4
ENDMDL
