MODEL 9
REMARK VINA RESULT:    -7.240      4.914      8.676
REMARK INTER + INTRA:          -9.737
REMARK INTER:                  -8.804
REMARK INTRA:                  -0.933
REMARK UNBOUND:                -0.803
REMARK  Name = ligand_1
REMARK                            x       y       z     vdW  Elec       q    Type
REMARK                         _______ _______ _______ _____ _____    ______ ____
ROOT
ATOM      2  N   LIG    1       48.359  61.997  36.254  0.00  0.00    -0.305 N 
ATOM      3  C   LIG    1       48.808  60.645  35.936  0.00  0.00    +0.108 C 
ATOM      4  C   LIG    1       48.779  59.796  37.212  0.00  0.00    +0.094 C 
ATOM      5  N   LIG    1       47.456  59.885  37.847  0.00  0.00    -0.270 NA
ATOM     18  C   LIG    1       47.001  61.236  38.148  0.00  0.00    +0.094 C 
ATOM     19  C   LIG    1       47.027  62.076  36.873  0.00  0.00    +0.108 C 
ENDROOT
BRANCH   2   1
ATOM      1  C   LIG    1       48.685  63.017  35.293  0.00  0.00    +0.051 A 
ATOM     20  C   LIG    1       49.915  63.713  35.311  0.00  0.00    +0.031 A 
ATOM     21  C   LIG    1       50.841  63.540  36.338  0.00  0.00    +0.003 A 
ATOM     22  C   LIG    1       52.043  64.241  36.334  0.00  0.00    +0.000 A 
ATOM     23  C   LIG    1       52.346  65.136  35.307  0.00  0.00    +0.002 A 
ATOM     24  C   LIG    1       51.434  65.320  34.273  0.00  0.00    +0.019 A 
ATOM     25  C   LIG    1       50.235  64.615  34.279  0.00  0.00    +0.082 A 
ATOM     26  N   LIG    1       49.373  64.830  33.271  0.00  0.00    -0.241 NA
ATOM     27  C   LIG    1       48.185  64.192  33.217  0.00  0.00    +0.154 A 
ATOM     32  C   LIG    1       47.824  63.268  34.210  0.00  0.00    +0.038 A 
BRANCH  27  28
ATOM     28  C   LIG    1       47.350  64.526  32.010  0.00  0.00    +0.435 C 
ATOM     29  F   LIG    1       46.084  64.292  32.293  0.00  0.00    -0.164 F 
ATOM     30  F   LIG    1       47.707  63.900  30.905  0.00  0.00    -0.164 F 
ATOM     31  F   LIG    1       47.478  65.821  31.815  0.00  0.00    -0.164 F 
ENDBRANCH  27  28
ENDBRANCH   2   1
BRANCH   5   6
ATOM      6  C   LIG    1       47.438  59.087  39.105  0.00  0.00    +0.077 C 
ATOM      7  C   LIG    1       48.714  58.254  39.298  0.00  0.00    +0.044 C 
ATOM      8  C   LIG    1       48.830  58.068  40.811  0.00  0.00    +0.150 C 
ATOM     16  N   LIG    1       48.137  59.225  41.368  0.00  0.00    -0.209 NA
ATOM     17  C   LIG    1       47.422  59.986  40.352  0.00  0.00    +0.105 C 
BRANCH   8   9
ATOM      9  C   LIG    1       50.262  57.925  41.293  0.00  0.00    +0.242 C 
ATOM     10  O   LIG    1       51.020  58.893  41.237  0.00  0.00    -0.273 OA
ATOM     11  N   LIG    1       50.613  56.738  41.805  0.00  0.00    -0.268 N 
ATOM     12  C   LIG    1       49.657  55.623  41.831  0.00  0.00    +0.106 C 
ATOM     13  C   LIG    1       50.261  54.370  42.474  0.00  0.00    +0.081 C 
ATOM     14  S   LIG    1       51.968  54.650  42.435  0.00  0.00    -0.117 S 
ATOM     15  C   LIG    1       51.934  56.422  42.365  0.00  0.00    +0.152 C 
ENDBRANCH   8   9
ENDBRANCH   5   6
TORSDOF 4
ENDMDL
