MODEL 3
REMARK VINA RESULT:    -7.701      1.955      3.125
REMARK INTER + INTRA:         -10.305
REMARK INTER:                 -10.389
REMARK INTRA:                   0.084
REMARK UNBOUND:                -0.803
REMARK  Name = ligand_1
REMARK                            x       y       z     vdW  Elec       q    Type
REMARK                         _______ _______ _______ _____ _____    ______ ____
ROOT
ATOM      2  N   LIG    1       50.522  61.770  38.697  0.00  0.00    -0.305 N 
ATOM      3  C   LIG    1       50.389  63.196  38.982  0.00  0.00    +0.108 C 
ATOM      4  C   LIG    1       51.534  63.950  38.297  0.00  0.00    +0.094 C 
ATOM      5  N   LIG    1       51.589  63.597  36.870  0.00  0.00    -0.270 NA
ATOM     18  C   LIG    1       51.705  62.173  36.588  0.00  0.00    +0.094 C 
ATOM     19  C   LIG    1       50.559  61.426  37.268  0.00  0.00    +0.108 C 
ENDROOT
BRANCH   2   1
ATOM      1  C   LIG    1       49.788  60.880  39.556  0.00  0.00    +0.051 A 
ATOM     20  C   LIG    1       48.395  61.005  39.769  0.00  0.00    +0.031 A 
ATOM     21  C   LIG    1       47.668  62.076  39.255  0.00  0.00    +0.003 A 
ATOM     22  C   LIG    1       46.299  62.179  39.483  0.00  0.00    +0.000 A 
ATOM     23  C   LIG    1       45.625  61.215  40.235  0.00  0.00    +0.002 A 
ATOM     24  C   LIG    1       46.335  60.137  40.754  0.00  0.00    +0.019 A 
ATOM     25  C   LIG    1       47.703  60.037  40.521  0.00  0.00    +0.082 A 
ATOM     26  N   LIG    1       48.358  58.990  41.051  0.00  0.00    -0.241 NA
ATOM     27  C   LIG    1       49.687  58.835  40.879  0.00  0.00    +0.154 A 
ATOM     32  C   LIG    1       50.423  59.760  40.122  0.00  0.00    +0.038 A 
BRANCH  27  28
ATOM     28  C   LIG    1       50.260  57.597  41.515  0.00  0.00    +0.435 C 
ATOM     29  F   LIG    1       50.782  56.840  40.572  0.00  0.00    -0.164 F 
ATOM     30  F   LIG    1       49.404  56.910  42.248  0.00  0.00    -0.164 F 
ATOM     31  F   LIG    1       51.244  57.998  42.291  0.00  0.00    -0.164 F 
ENDBRANCH  27  28
ENDBRANCH   2   1
BRANCH   5   6
ATOM      6  C   LIG    1       52.722  64.305  36.212  0.00  0.00    +0.077 C 
ATOM      7  C   LIG    1       54.051  64.127  36.962  0.00  0.00    +0.044 C 
ATOM      8  C   LIG    1       55.127  64.302  35.891  0.00  0.00    +0.150 C 
ATOM     16  N   LIG    1       54.465  63.912  34.651  0.00  0.00    -0.209 NA
ATOM     17  C   LIG    1       53.031  63.723  34.823  0.00  0.00    +0.105 C 
BRANCH   8   9
ATOM      9  C   LIG    1       56.395  63.520  36.177  0.00  0.00    +0.242 C 
ATOM     10  O   LIG    1       56.638  62.500  35.532  0.00  0.00    -0.273 OA
ATOM     11  N   LIG    1       57.220  64.022  37.107  0.00  0.00    -0.268 N 
ATOM     12  C   LIG    1       56.860  65.240  37.845  0.00  0.00    +0.106 C 
ATOM     13  C   LIG    1       57.952  65.643  38.843  0.00  0.00    +0.081 C 
ATOM     14  S   LIG    1       58.908  64.214  39.031  0.00  0.00    -0.117 S 
ATOM     15  C   LIG    1       58.512  63.437  37.487  0.00  0.00    +0.152 C 
ENDBRANCH   8   9
ENDBRANCH   5   6
TORSDOF 4
ENDMDL
