MODEL 4
REMARK VINA RESULT:    -7.589      4.602      8.885
REMARK INTER + INTRA:         -10.167
REMARK INTER:                  -9.518
REMARK INTRA:                  -0.650
REMARK UNBOUND:                -0.803
REMARK  Name = ligand_1
REMARK                            x       y       z     vdW  Elec       q    Type
REMARK                         _______ _______ _______ _____ _____    ______ ____
ROOT
ATOM      2  N   LIG    1       50.735  62.979  36.666  0.00  0.00    -0.305 N 
ATOM      3  C   LIG    1       49.423  62.574  36.169  0.00  0.00    +0.108 C 
ATOM      4  C   LIG    1       48.928  61.376  36.986  0.00  0.00    +0.094 C 
ATOM      5  N   LIG    1       48.986  61.687  38.423  0.00  0.00    -0.270 NA
ATOM     18  C   LIG    1       50.291  62.108  38.914  0.00  0.00    +0.094 C 
ATOM     19  C   LIG    1       50.779  63.304  38.100  0.00  0.00    +0.108 C 
ENDROOT
BRANCH   2   1
ATOM      1  C   LIG    1       51.516  63.813  35.792  0.00  0.00    +0.051 A 
ATOM     20  C   LIG    1       52.927  63.746  35.738  0.00  0.00    +0.031 A 
ATOM     21  C   LIG    1       53.658  62.953  36.619  0.00  0.00    +0.003 A 
ATOM     22  C   LIG    1       55.047  62.909  36.548  0.00  0.00    +0.000 A 
ATOM     23  C   LIG    1       55.740  63.661  35.597  0.00  0.00    +0.002 A 
ATOM     24  C   LIG    1       55.025  64.457  34.708  0.00  0.00    +0.019 A 
ATOM     25  C   LIG    1       53.636  64.496  34.781  0.00  0.00    +0.082 A 
ATOM     26  N   LIG    1       52.982  65.288  33.915  0.00  0.00    -0.241 NA
ATOM     27  C   LIG    1       51.637  65.388  33.935  0.00  0.00    +0.154 A 
ATOM     32  C   LIG    1       50.879  64.647  34.856  0.00  0.00    +0.038 A 
BRANCH  27  28
ATOM     28  C   LIG    1       51.061  66.296  32.883  0.00  0.00    +0.435 C 
ATOM     29  F   LIG    1       51.637  66.025  31.729  0.00  0.00    -0.164 F 
ATOM     30  F   LIG    1       51.149  67.583  33.160  0.00  0.00    -0.164 F 
ATOM     31  F   LIG    1       49.788  65.980  32.773  0.00  0.00    -0.164 F 
ENDBRANCH  27  28
ENDBRANCH   2   1
BRANCH   5   6
ATOM      6  C   LIG    1       48.535  60.512  39.219  0.00  0.00    +0.077 C 
ATOM      7  C   LIG    1       49.549  59.357  39.199  0.00  0.00    +0.044 C 
ATOM      8  C   LIG    1       49.290  58.592  40.497  0.00  0.00    +0.150 C 
ATOM     16  N   LIG    1       48.731  59.595  41.398  0.00  0.00    -0.209 NA
ATOM     17  C   LIG    1       48.422  60.844  40.715  0.00  0.00    +0.105 C 
BRANCH   8   9
ATOM      9  C   LIG    1       50.523  57.899  41.045  0.00  0.00    +0.242 C 
ATOM     10  O   LIG    1       51.618  58.454  40.959  0.00  0.00    -0.273 OA
ATOM     11  N   LIG    1       50.337  56.716  41.646  0.00  0.00    -0.268 N 
ATOM     12  C   LIG    1       49.000  56.109  41.703  0.00  0.00    +0.106 C 
ATOM     13  C   LIG    1       49.015  54.770  42.448  0.00  0.00    +0.081 C 
ATOM     14  S   LIG    1       50.682  54.307  42.462  0.00  0.00    -0.117 S 
ATOM     15  C   LIG    1       51.397  55.919  42.278  0.00  0.00    +0.152 C 
ENDBRANCH   8   9
ENDBRANCH   5   6
TORSDOF 4
ENDMDL
