MODEL 7
REMARK VINA RESULT:    -7.294      4.959      9.360
REMARK INTER + INTRA:          -9.803
REMARK INTER:                  -9.729
REMARK INTRA:                  -0.073
REMARK UNBOUND:                -0.803
REMARK  Name = ligand_1
REMARK                            x       y       z     vdW  Elec       q    Type
REMARK                         _______ _______ _______ _____ _____    ______ ____
ROOT
ATOM      2  N   LIG    1       50.764  62.449  37.003  0.00  0.00    -0.305 N 
ATOM      3  C   LIG    1       49.712  61.769  36.254  0.00  0.00    +0.108 C 
ATOM      4  C   LIG    1       49.097  60.677  37.136  0.00  0.00    +0.094 C 
ATOM      5  N   LIG    1       48.681  61.247  38.427  0.00  0.00    -0.270 NA
ATOM     18  C   LIG    1       49.728  61.940  39.165  0.00  0.00    +0.094 C 
ATOM     19  C   LIG    1       50.335  63.029  38.284  0.00  0.00    +0.108 C 
ENDROOT
BRANCH   2   1
ATOM      1  C   LIG    1       51.700  63.219  36.227  0.00  0.00    +0.051 A 
ATOM     20  C   LIG    1       51.300  64.029  35.139  0.00  0.00    +0.031 A 
ATOM     21  C   LIG    1       49.988  64.036  34.673  0.00  0.00    +0.003 A 
ATOM     22  C   LIG    1       49.621  64.840  33.597  0.00  0.00    +0.000 A 
ATOM     23  C   LIG    1       50.560  65.652  32.959  0.00  0.00    +0.002 A 
ATOM     24  C   LIG    1       51.875  65.659  33.413  0.00  0.00    +0.019 A 
ATOM     25  C   LIG    1       52.236  64.856  34.490  0.00  0.00    +0.082 A 
ATOM     26  N   LIG    1       53.518  64.879  34.890  0.00  0.00    -0.241 NA
ATOM     27  C   LIG    1       53.945  64.117  35.919  0.00  0.00    +0.154 A 
ATOM     32  C   LIG    1       53.050  63.288  36.614  0.00  0.00    +0.038 A 
BRANCH  27  28
ATOM     28  C   LIG    1       55.402  64.280  36.256  0.00  0.00    +0.435 C 
ATOM     29  F   LIG    1       56.040  63.177  35.919  0.00  0.00    -0.164 F 
ATOM     30  F   LIG    1       55.644  64.595  37.514  0.00  0.00    -0.164 F 
ATOM     31  F   LIG    1       55.856  65.248  35.490  0.00  0.00    -0.164 F 
ENDBRANCH  27  28
ENDBRANCH   2   1
BRANCH   5   6
ATOM      6  C   LIG    1       48.113  60.179  39.297  0.00  0.00    +0.077 C 
ATOM      7  C   LIG    1       49.060  58.981  39.464  0.00  0.00    +0.044 C 
ATOM      8  C   LIG    1       48.671  58.364  40.807  0.00  0.00    +0.150 C 
ATOM     16  N   LIG    1       48.109  59.477  41.563  0.00  0.00    -0.209 NA
ATOM     17  C   LIG    1       47.915  60.665  40.742  0.00  0.00    +0.105 C 
BRANCH   8   9
ATOM      9  C   LIG    1       49.825  57.671  41.508  0.00  0.00    +0.242 C 
ATOM     10  O   LIG    1       50.688  58.347  42.067  0.00  0.00    -0.273 OA
ATOM     11  N   LIG    1       49.811  56.331  41.517  0.00  0.00    -0.268 N 
ATOM     12  C   LIG    1       48.752  55.590  40.819  0.00  0.00    +0.106 C 
ATOM     13  C   LIG    1       48.922  54.074  40.974  0.00  0.00    +0.081 C 
ATOM     14  S   LIG    1       50.566  53.877  41.477  0.00  0.00    -0.117 S 
ATOM     15  C   LIG    1       50.811  55.485  42.183  0.00  0.00    +0.152 C 
ENDBRANCH   8   9
ENDBRANCH   5   6
TORSDOF 4
ENDMDL
