MODEL 5
REMARK VINA RESULT:    -7.408      5.311      6.999
REMARK INTER + INTRA:          -9.943
REMARK INTER:                  -9.395
REMARK INTRA:                  -0.549
REMARK UNBOUND:                -0.803
REMARK  Name = ligand_1
REMARK                            x       y       z     vdW  Elec       q    Type
REMARK                         _______ _______ _______ _____ _____    ______ ____
ROOT
ATOM      2  N   LIG    1       53.546  58.120  38.595  0.00  0.00    -0.305 N 
ATOM      3  C   LIG    1       54.513  59.152  38.233  0.00  0.00    +0.108 C 
ATOM      4  C   LIG    1       54.035  59.859  36.960  0.00  0.00    +0.094 C 
ATOM      5  N   LIG    1       52.651  60.327  37.131  0.00  0.00    -0.270 NA
ATOM     18  C   LIG    1       51.691  59.297  37.508  0.00  0.00    +0.094 C 
ATOM     19  C   LIG    1       52.169  58.599  38.780  0.00  0.00    +0.108 C 
ENDROOT
BRANCH   2   1
ATOM      1  C   LIG    1       54.007  57.112  39.513  0.00  0.00    +0.051 A 
ATOM     20  C   LIG    1       54.835  56.038  39.110  0.00  0.00    +0.031 A 
ATOM     21  C   LIG    1       55.156  55.821  37.772  0.00  0.00    +0.003 A 
ATOM     22  C   LIG    1       55.969  54.754  37.403  0.00  0.00    +0.000 A 
ATOM     23  C   LIG    1       56.476  53.875  38.361  0.00  0.00    +0.002 A 
ATOM     24  C   LIG    1       56.168  54.079  39.702  0.00  0.00    +0.019 A 
ATOM     25  C   LIG    1       55.357  55.149  40.068  0.00  0.00    +0.082 A 
ATOM     26  N   LIG    1       55.068  55.304  41.371  0.00  0.00    -0.241 NA
ATOM     27  C   LIG    1       54.277  56.310  41.799  0.00  0.00    +0.154 A 
ATOM     32  C   LIG    1       53.746  57.237  40.888  0.00  0.00    +0.038 A 
BRANCH  27  28
ATOM     28  C   LIG    1       54.076  56.357  43.289  0.00  0.00    +0.435 C 
ATOM     29  F   LIG    1       54.276  55.151  43.781  0.00  0.00    -0.164 F 
ATOM     30  F   LIG    1       52.905  56.831  43.671  0.00  0.00    -0.164 F 
ATOM     31  F   LIG    1       55.018  57.141  43.768  0.00  0.00    -0.164 F 
ENDBRANCH  27  28
ENDBRANCH   2   1
BRANCH   5   6
ATOM      6  C   LIG    1       52.176  60.984  35.882  0.00  0.00    +0.077 C 
ATOM      7  C   LIG    1       51.520  62.349  36.141  0.00  0.00    +0.044 C 
ATOM      8  C   LIG    1       51.709  63.124  34.837  0.00  0.00    +0.150 C 
ATOM     16  N   LIG    1       52.904  62.535  34.241  0.00  0.00    -0.209 NA
ATOM     17  C   LIG    1       53.341  61.335  34.942  0.00  0.00    +0.105 C 
BRANCH   8   9
ATOM      9  C   LIG    1       51.802  64.625  35.035  0.00  0.00    +0.242 C 
ATOM     10  O   LIG    1       52.152  65.071  36.127  0.00  0.00    -0.273 OA
ATOM     11  N   LIG    1       51.536  65.394  33.971  0.00  0.00    -0.268 N 
ATOM     12  C   LIG    1       51.115  64.792  32.699  0.00  0.00    +0.106 C 
ATOM     13  C   LIG    1       50.882  65.851  31.617  0.00  0.00    +0.081 C 
ATOM     14  S   LIG    1       50.726  67.333  32.496  0.00  0.00    -0.117 S 
ATOM     15  C   LIG    1       51.620  66.861  33.953  0.00  0.00    +0.152 C 
ENDBRANCH   8   9
ENDBRANCH   5   6
TORSDOF 4
ENDMDL
