MODEL 2
REMARK VINA RESULT:    -7.997      5.477      9.877
REMARK INTER + INTRA:         -10.670
REMARK INTER:                  -9.825
REMARK INTRA:                  -0.846
REMARK UNBOUND:                -0.803
REMARK  Name = ligand_1
REMARK                            x       y       z     vdW  Elec       q    Type
REMARK                         _______ _______ _______ _____ _____    ______ ____
ROOT
ATOM      2  N   LIG    1       51.190  62.497  37.505  0.00  0.00    -0.305 N 
ATOM      3  C   LIG    1       50.712  63.266  38.650  0.00  0.00    +0.108 C 
ATOM      4  C   LIG    1       49.589  62.486  39.341  0.00  0.00    +0.094 C 
ATOM      5  N   LIG    1       50.037  61.119  39.646  0.00  0.00    -0.270 NA
ATOM     18  C   LIG    1       50.529  60.359  38.504  0.00  0.00    +0.094 C 
ATOM     19  C   LIG    1       51.652  61.138  37.822  0.00  0.00    +0.108 C 
ENDROOT
BRANCH   2   1
ATOM      1  C   LIG    1       51.952  63.224  36.524  0.00  0.00    +0.051 A 
ATOM     20  C   LIG    1       51.350  63.866  35.417  0.00  0.00    +0.031 A 
ATOM     21  C   LIG    1       49.992  63.730  35.139  0.00  0.00    +0.003 A 
ATOM     22  C   LIG    1       49.426  64.369  34.040  0.00  0.00    +0.000 A 
ATOM     23  C   LIG    1       50.205  65.155  33.189  0.00  0.00    +0.002 A 
ATOM     24  C   LIG    1       51.563  65.303  33.453  0.00  0.00    +0.019 A 
ATOM     25  C   LIG    1       52.124  64.665  34.555  0.00  0.00    +0.082 A 
ATOM     26  N   LIG    1       53.442  64.820  34.768  0.00  0.00    -0.241 NA
ATOM     27  C   LIG    1       54.058  64.221  35.808  0.00  0.00    +0.154 A 
ATOM     32  C   LIG    1       53.330  63.429  36.710  0.00  0.00    +0.038 A 
BRANCH  27  28
ATOM     28  C   LIG    1       55.529  64.518  35.919  0.00  0.00    +0.435 C 
ATOM     29  F   LIG    1       56.202  63.399  35.740  0.00  0.00    -0.164 F 
ATOM     30  F   LIG    1       55.888  65.105  37.045  0.00  0.00    -0.164 F 
ATOM     31  F   LIG    1       55.824  65.321  34.919  0.00  0.00    -0.164 F 
ENDBRANCH  27  28
ENDBRANCH   2   1
BRANCH   5   6
ATOM      6  C   LIG    1       48.934  60.351  40.288  0.00  0.00    +0.077 C 
ATOM      7  C   LIG    1       48.638  59.024  39.572  0.00  0.00    +0.044 C 
ATOM      8  C   LIG    1       48.034  58.127  40.652  0.00  0.00    +0.150 C 
ATOM     16  N   LIG    1       48.592  58.642  41.898  0.00  0.00    -0.209 NA
ATOM     17  C   LIG    1       49.305  59.899  41.710  0.00  0.00    +0.105 C 
BRANCH   8   9
ATOM      9  C   LIG    1       48.302  56.651  40.428  0.00  0.00    +0.242 C 
ATOM     10  O   LIG    1       49.415  56.191  40.683  0.00  0.00    -0.273 OA
ATOM     11  N   LIG    1       47.273  55.906  40.000  0.00  0.00    -0.268 N 
ATOM     12  C   LIG    1       45.974  56.526  39.707  0.00  0.00    +0.106 C 
ATOM     13  C   LIG    1       44.940  55.490  39.250  0.00  0.00    +0.081 C 
ATOM     14  S   LIG    1       45.886  54.116  38.791  0.00  0.00    -0.117 S 
ATOM     15  C   LIG    1       47.323  54.456  39.773  0.00  0.00    +0.152 C 
ENDBRANCH   8   9
ENDBRANCH   5   6
TORSDOF 4
ENDMDL
