MODEL 1
REMARK VINA RESULT:    -8.472      0.000      0.000
REMARK INTER + INTRA:         -11.146
REMARK INTER:                 -10.453
REMARK INTRA:                  -0.693
REMARK UNBOUND:                -0.693
REMARK  Name = ligand_1
REMARK                            x       y       z     vdW  Elec       q    Type
REMARK                         _______ _______ _______ _____ _____    ______ ____
ROOT
ATOM      2  N   LIG    1       50.215  61.908  38.281  0.00  0.00    -0.305 N 
ATOM      3  C   LIG    1       50.396  63.260  38.800  0.00  0.00    +0.108 C 
ATOM      4  C   LIG    1       51.621  63.892  38.131  0.00  0.00    +0.094 C 
ATOM      5  N   LIG    1       51.506  63.791  36.668  0.00  0.00    -0.270 NA
ATOM     18  C   LIG    1       51.309  62.442  36.153  0.00  0.00    +0.094 C 
ATOM     19  C   LIG    1       50.084  61.818  36.819  0.00  0.00    +0.108 C 
ENDROOT
BRANCH   2   1
ATOM      1  C   LIG    1       49.374  61.036  39.058  0.00  0.00    +0.051 A 
ATOM     20  C   LIG    1       49.888  59.950  39.803  0.00  0.00    +0.031 A 
ATOM     21  C   LIG    1       51.229  59.580  39.732  0.00  0.00    +0.003 A 
ATOM     22  C   LIG    1       51.708  58.503  40.472  0.00  0.00    +0.000 A 
ATOM     23  C   LIG    1       50.856  57.766  41.297  0.00  0.00    +0.002 A 
ATOM     24  C   LIG    1       49.514  58.123  41.381  0.00  0.00    +0.019 A 
ATOM     25  C   LIG    1       49.041  59.202  40.642  0.00  0.00    +0.082 A 
ATOM     26  N   LIG    1       47.735  59.506  40.738  0.00  0.00    -0.241 NA
ATOM     27  C   LIG    1       47.201  60.530  40.041  0.00  0.00    +0.154 A 
ATOM     32  C   LIG    1       48.005  61.321  39.204  0.00  0.00    +0.038 A 
BRANCH  27  28
ATOM     28  C   LIG    1       45.733  60.753  40.282  0.00  0.00    +0.435 C 
ATOM     29  F   LIG    1       45.358  60.023  41.312  0.00  0.00    -0.164 F 
ATOM     30  F   LIG    1       44.962  60.520  39.236  0.00  0.00    -0.164 F 
ATOM     31  F   LIG    1       45.599  62.017  40.623  0.00  0.00    -0.164 F 
ENDBRANCH  27  28
ENDBRANCH   2   1
BRANCH   5   6
ATOM      6  C   LIG    1       52.712  64.375  36.019  0.00  0.00    +0.077 C 
ATOM      7  C   LIG    1       53.989  64.177  36.850  0.00  0.00    +0.044 C 
ATOM      8  C   LIG    1       55.125  64.202  35.827  0.00  0.00    +0.150 C 
ATOM     16  N   LIG    1       54.499  63.755  34.587  0.00  0.00    -0.209 NA
ATOM     17  C   LIG    1       53.050  63.667  34.697  0.00  0.00    +0.105 C 
BRANCH   8   9
ATOM      9  C   LIG    1       56.325  63.370  36.239  0.00  0.00    +0.242 C 
ATOM     10  O   LIG    1       56.504  62.267  35.723  0.00  0.00    -0.273 OA
ATOM     11  N   LIG    1       57.165  63.918  37.128  0.00  0.00    -0.268 N 
ATOM     12  C   LIG    1       56.883  65.237  37.709  0.00  0.00    +0.106 C 
ATOM     13  C   LIG    1       57.980  65.676  38.684  0.00  0.00    +0.081 C 
ATOM     14  S   LIG    1       58.824  64.214  39.065  0.00  0.00    -0.117 S 
ATOM     15  C   LIG    1       58.403  63.290  37.611  0.00  0.00    +0.152 C 
ENDBRANCH   8   9
ENDBRANCH   5   6
TORSDOF 4
ENDMDL
MODEL 2
REMARK VINA RESULT:    -8.163      5.444      9.878
REMARK INTER + INTRA:         -10.765
REMARK INTER:                  -9.931
REMARK INTRA:                  -0.835
REMARK UNBOUND:                -0.693
REMARK  Name = ligand_1
REMARK                            x       y       z     vdW  Elec       q    Type
REMARK                         _______ _______ _______ _____ _____    ______ ____
ROOT
ATOM      2  N   LIG    1       51.224  62.641  37.410  0.00  0.00    -0.305 N 
ATOM      3  C   LIG    1       50.870  63.371  38.623  0.00  0.00    +0.108 C 
ATOM      4  C   LIG    1       49.683  62.674  39.297  0.00  0.00    +0.094 C 
ATOM      5  N   LIG    1       49.978  61.246  39.487  0.00  0.00    -0.270 NA
ATOM     18  C   LIG    1       50.348  60.523  38.277  0.00  0.00    +0.094 C 
ATOM     19  C   LIG    1       51.534  61.218  37.612  0.00  0.00    +0.108 C 
ENDROOT
BRANCH   2   1
ATOM      1  C   LIG    1       52.037  63.349  36.457  0.00  0.00    +0.051 A 
ATOM     20  C   LIG    1       51.491  64.005  35.330  0.00  0.00    +0.031 A 
ATOM     21  C   LIG    1       50.141  63.903  35.004  0.00  0.00    +0.003 A 
ATOM     22  C   LIG    1       49.629  64.555  33.886  0.00  0.00    +0.000 A 
ATOM     23  C   LIG    1       50.457  65.321  33.064  0.00  0.00    +0.002 A 
ATOM     24  C   LIG    1       51.808  65.436  33.375  0.00  0.00    +0.019 A 
ATOM     25  C   LIG    1       52.314  64.784  34.495  0.00  0.00    +0.082 A 
ATOM     26  N   LIG    1       53.627  64.906  34.755  0.00  0.00    -0.241 NA
ATOM     27  C   LIG    1       54.192  64.292  35.816  0.00  0.00    +0.154 A 
ATOM     32  C   LIG    1       53.413  63.519  36.691  0.00  0.00    +0.038 A 
BRANCH  27  28
ATOM     28  C   LIG    1       55.665  64.552  35.978  0.00  0.00    +0.435 C 
ATOM     29  F   LIG    1       56.333  63.559  35.428  0.00  0.00    -0.164 F 
ATOM     30  F   LIG    1       56.055  64.746  37.224  0.00  0.00    -0.164 F 
ATOM     31  F   LIG    1       55.930  65.639  35.286  0.00  0.00    -0.164 F 
ENDBRANCH  27  28
ENDBRANCH   2   1
BRANCH   5   6
ATOM      6  C   LIG    1       48.812  60.562  40.112  0.00  0.00    +0.077 C 
ATOM      7  C   LIG    1       48.532  59.182  39.496  0.00  0.00    +0.044 C 
ATOM      8  C   LIG    1       47.829  58.399  40.605  0.00  0.00    +0.150 C 
ATOM     16  N   LIG    1       48.309  59.013  41.838  0.00  0.00    -0.209 NA
ATOM     17  C   LIG    1       49.068  60.232  41.591  0.00  0.00    +0.105 C 
BRANCH   8   9
ATOM      9  C   LIG    1       48.072  56.903  40.533  0.00  0.00    +0.242 C 
ATOM     10  O   LIG    1       49.110  56.435  41.001  0.00  0.00    -0.273 OA
ATOM     11  N   LIG    1       47.099  56.156  39.994  0.00  0.00    -0.268 N 
ATOM     12  C   LIG    1       45.889  56.786  39.447  0.00  0.00    +0.106 C 
ATOM     13  C   LIG    1       44.905  55.747  38.899  0.00  0.00    +0.081 C 
ATOM     14  S   LIG    1       45.860  54.317  38.701  0.00  0.00    -0.117 S 
ATOM     15  C   LIG    1       47.129  54.692  39.881  0.00  0.00    +0.152 C 
ENDBRANCH   8   9
ENDBRANCH   5   6
TORSDOF 4
ENDMDL
MODEL 3
REMARK VINA RESULT:    -7.766      4.989      9.324
REMARK INTER + INTRA:         -10.276
REMARK INTER:                  -9.929
REMARK INTRA:                  -0.346
REMARK UNBOUND:                -0.693
REMARK  Name = ligand_1
REMARK                            x       y       z     vdW  Elec       q    Type
REMARK                         _______ _______ _______ _____ _____    ______ ____
ROOT
ATOM      2  N   LIG    1       51.216  62.431  37.236  0.00  0.00    -0.305 N 
ATOM      3  C   LIG    1       50.418  61.412  36.561  0.00  0.00    +0.108 C 
ATOM      4  C   LIG    1       49.910  60.406  37.601  0.00  0.00    +0.094 C 
ATOM      5  N   LIG    1       49.229  61.114  38.696  0.00  0.00    -0.270 NA
ATOM     18  C   LIG    1       50.022  62.142  39.358  0.00  0.00    +0.094 C 
ATOM     19  C   LIG    1       50.522  63.144  38.319  0.00  0.00    +0.108 C 
ENDROOT
BRANCH   2   1
ATOM      1  C   LIG    1       52.082  63.217  36.398  0.00  0.00    +0.051 A 
ATOM     20  C   LIG    1       51.599  63.981  35.311  0.00  0.00    +0.031 A 
ATOM     21  C   LIG    1       50.268  63.924  34.908  0.00  0.00    +0.003 A 
ATOM     22  C   LIG    1       49.819  64.684  33.831  0.00  0.00    +0.000 A 
ATOM     23  C   LIG    1       50.693  65.515  33.129  0.00  0.00    +0.002 A 
ATOM     24  C   LIG    1       52.027  65.586  33.520  0.00  0.00    +0.019 A 
ATOM     25  C   LIG    1       52.470  64.828  34.598  0.00  0.00    +0.082 A 
ATOM     26  N   LIG    1       53.768  64.911  34.936  0.00  0.00    -0.241 NA
ATOM     27  C   LIG    1       54.272  64.194  35.962  0.00  0.00    +0.154 A 
ATOM     32  C   LIG    1       53.445  63.350  36.719  0.00  0.00    +0.038 A 
BRANCH  27  28
ATOM     28  C   LIG    1       55.736  64.424  36.225  0.00  0.00    +0.435 C 
ATOM     29  F   LIG    1       56.423  63.442  35.677  0.00  0.00    -0.164 F 
ATOM     30  F   LIG    1       56.051  64.562  37.499  0.00  0.00    -0.164 F 
ATOM     31  F   LIG    1       56.059  65.533  35.595  0.00  0.00    -0.164 F 
ENDBRANCH  27  28
ENDBRANCH   2   1
BRANCH   5   6
ATOM      6  C   LIG    1       48.765  60.139  39.723  0.00  0.00    +0.077 C 
ATOM      7  C   LIG    1       49.528  58.807  39.666  0.00  0.00    +0.044 C 
ATOM      8  C   LIG    1       49.431  58.244  41.084  0.00  0.00    +0.150 C 
ATOM     16  N   LIG    1       49.272  59.424  41.927  0.00  0.00    -0.209 NA
ATOM     17  C   LIG    1       49.045  60.635  41.150  0.00  0.00    +0.105 C 
BRANCH   8   9
ATOM      9  C   LIG    1       50.613  57.374  41.469  0.00  0.00    +0.242 C 
ATOM     10  O   LIG    1       51.756  57.809  41.333  0.00  0.00    -0.273 OA
ATOM     11  N   LIG    1       50.334  56.171  41.991  0.00  0.00    -0.268 N 
ATOM     12  C   LIG    1       48.944  55.714  42.115  0.00  0.00    +0.106 C 
ATOM     13  C   LIG    1       48.857  54.323  42.752  0.00  0.00    +0.081 C 
ATOM     14  S   LIG    1       50.454  53.677  42.587  0.00  0.00    -0.117 S 
ATOM     15  C   LIG    1       51.338  55.210  42.467  0.00  0.00    +0.152 C 
ENDBRANCH   8   9
ENDBRANCH   5   6
TORSDOF 4
ENDMDL
MODEL 4
REMARK VINA RESULT:    -7.695      4.612      8.824
REMARK INTER + INTRA:         -10.188
REMARK INTER:                  -9.548
REMARK INTRA:                  -0.640
REMARK UNBOUND:                -0.693
REMARK  Name = ligand_1
REMARK                            x       y       z     vdW  Elec       q    Type
REMARK                         _______ _______ _______ _____ _____    ______ ____
ROOT
ATOM      2  N   LIG    1       50.677  63.032  36.572  0.00  0.00    -0.305 N 
ATOM      3  C   LIG    1       49.356  62.627  36.101  0.00  0.00    +0.108 C 
ATOM      4  C   LIG    1       48.875  61.433  36.931  0.00  0.00    +0.094 C 
ATOM      5  N   LIG    1       48.961  61.747  38.366  0.00  0.00    -0.270 NA
ATOM     18  C   LIG    1       50.276  62.167  38.830  0.00  0.00    +0.094 C 
ATOM     19  C   LIG    1       50.750  63.361  38.004  0.00  0.00    +0.108 C 
ENDROOT
BRANCH   2   1
ATOM      1  C   LIG    1       51.443  63.863  35.680  0.00  0.00    +0.051 A 
ATOM     20  C   LIG    1       52.855  63.814  35.621  0.00  0.00    +0.031 A 
ATOM     21  C   LIG    1       53.601  63.046  36.511  0.00  0.00    +0.003 A 
ATOM     22  C   LIG    1       54.990  63.020  36.434  0.00  0.00    +0.000 A 
ATOM     23  C   LIG    1       55.667  63.766  35.468  0.00  0.00    +0.002 A 
ATOM     24  C   LIG    1       54.938  64.537  34.569  0.00  0.00    +0.019 A 
ATOM     25  C   LIG    1       53.549  64.558  34.648  0.00  0.00    +0.082 A 
ATOM     26  N   LIG    1       52.880  65.327  33.772  0.00  0.00    -0.241 NA
ATOM     27  C   LIG    1       51.533  65.408  33.797  0.00  0.00    +0.154 A 
ATOM     32  C   LIG    1       50.790  64.672  34.734  0.00  0.00    +0.038 A 
BRANCH  27  28
ATOM     28  C   LIG    1       50.940  66.291  32.733  0.00  0.00    +0.435 C 
ATOM     29  F   LIG    1       51.094  67.549  33.093  0.00  0.00    -0.164 F 
ATOM     30  F   LIG    1       49.676  66.037  32.449  0.00  0.00    -0.164 F 
ATOM     31  F   LIG    1       51.657  66.099  31.647  0.00  0.00    -0.164 F 
ENDBRANCH  27  28
ENDBRANCH   2   1
BRANCH   5   6
ATOM      6  C   LIG    1       48.524  60.574  39.173  0.00  0.00    +0.077 C 
ATOM      7  C   LIG    1       49.540  59.422  39.145  0.00  0.00    +0.044 C 
ATOM      8  C   LIG    1       49.301  58.663  40.450  0.00  0.00    +0.150 C 
ATOM     16  N   LIG    1       48.753  59.668  41.354  0.00  0.00    -0.209 NA
ATOM     17  C   LIG    1       48.431  60.913  40.670  0.00  0.00    +0.105 C 
BRANCH   8   9
ATOM      9  C   LIG    1       50.544  57.975  40.983  0.00  0.00    +0.242 C 
ATOM     10  O   LIG    1       51.634  58.537  40.890  0.00  0.00    -0.273 OA
ATOM     11  N   LIG    1       50.370  56.787  41.579  0.00  0.00    -0.268 N 
ATOM     12  C   LIG    1       49.037  56.172  41.645  0.00  0.00    +0.106 C 
ATOM     13  C   LIG    1       49.067  54.829  42.384  0.00  0.00    +0.081 C 
ATOM     14  S   LIG    1       50.737  54.376  42.381  0.00  0.00    -0.117 S 
ATOM     15  C   LIG    1       51.440  55.994  42.198  0.00  0.00    +0.152 C 
ENDBRANCH   8   9
ENDBRANCH   5   6
TORSDOF 4
ENDMDL
MODEL 5
REMARK VINA RESULT:    -7.571      5.271      7.032
REMARK INTER + INTRA:         -10.034
REMARK INTER:                  -9.513
REMARK INTRA:                  -0.521
REMARK UNBOUND:                -0.693
REMARK  Name = ligand_1
REMARK                            x       y       z     vdW  Elec       q    Type
REMARK                         _______ _______ _______ _____ _____    ______ ____
ROOT
ATOM      2  N   LIG    1       53.558  57.949  38.774  0.00  0.00    -0.305 N 
ATOM      3  C   LIG    1       54.503  59.016  38.461  0.00  0.00    +0.108 C 
ATOM      4  C   LIG    1       54.041  59.736  37.190  0.00  0.00    +0.094 C 
ATOM      5  N   LIG    1       52.640  60.160  37.331  0.00  0.00    -0.270 NA
ATOM     18  C   LIG    1       51.700  59.096  37.660  0.00  0.00    +0.094 C 
ATOM     19  C   LIG    1       52.162  58.385  38.930  0.00  0.00    +0.108 C 
ENDROOT
BRANCH   2   1
ATOM      1  C   LIG    1       54.022  56.936  39.685  0.00  0.00    +0.051 A 
ATOM     20  C   LIG    1       54.833  55.855  39.269  0.00  0.00    +0.031 A 
ATOM     21  C   LIG    1       55.132  55.636  37.926  0.00  0.00    +0.003 A 
ATOM     22  C   LIG    1       55.929  54.561  37.544  0.00  0.00    +0.000 A 
ATOM     23  C   LIG    1       56.442  53.676  38.494  0.00  0.00    +0.002 A 
ATOM     24  C   LIG    1       56.155  53.881  39.840  0.00  0.00    +0.019 A 
ATOM     25  C   LIG    1       55.360  54.958  40.218  0.00  0.00    +0.082 A 
ATOM     26  N   LIG    1       55.092  55.115  41.525  0.00  0.00    -0.241 NA
ATOM     27  C   LIG    1       54.318  56.128  41.965  0.00  0.00    +0.154 A 
ATOM     32  C   LIG    1       53.782  57.062  41.064  0.00  0.00    +0.038 A 
BRANCH  27  28
ATOM     28  C   LIG    1       54.138  56.176  43.458  0.00  0.00    +0.435 C 
ATOM     29  F   LIG    1       54.941  57.096  43.952  0.00  0.00    -0.164 F 
ATOM     30  F   LIG    1       54.317  55.020  44.071  0.00  0.00    -0.164 F 
ATOM     31  F   LIG    1       52.902  56.573  43.673  0.00  0.00    -0.164 F 
ENDBRANCH  27  28
ENDBRANCH   2   1
BRANCH   5   6
ATOM      6  C   LIG    1       52.180  60.830  36.082  0.00  0.00    +0.077 C 
ATOM      7  C   LIG    1       51.516  62.190  36.347  0.00  0.00    +0.044 C 
ATOM      8  C   LIG    1       51.722  62.979  35.054  0.00  0.00    +0.150 C 
ATOM     16  N   LIG    1       52.927  62.401  34.470  0.00  0.00    -0.209 NA
ATOM     17  C   LIG    1       53.358  61.195  35.164  0.00  0.00    +0.105 C 
BRANCH   8   9
ATOM      9  C   LIG    1       51.807  64.479  35.271  0.00  0.00    +0.242 C 
ATOM     10  O   LIG    1       52.078  64.915  36.389  0.00  0.00    -0.273 OA
ATOM     11  N   LIG    1       51.623  65.257  34.196  0.00  0.00    -0.268 N 
ATOM     12  C   LIG    1       51.293  64.666  32.892  0.00  0.00    +0.106 C 
ATOM     13  C   LIG    1       51.145  65.735  31.804  0.00  0.00    +0.081 C 
ATOM     14  S   LIG    1       50.932  67.211  32.681  0.00  0.00    -0.117 S 
ATOM     15  C   LIG    1       51.715  66.723  34.195  0.00  0.00    +0.152 C 
ENDBRANCH   8   9
ENDBRANCH   5   6
TORSDOF 4
ENDMDL
MODEL 6
REMARK VINA RESULT:    -7.514      5.638      7.359
REMARK INTER + INTRA:          -9.965
REMARK INTER:                  -9.819
REMARK INTRA:                  -0.146
REMARK UNBOUND:                -0.693
REMARK  Name = ligand_1
REMARK                            x       y       z     vdW  Elec       q    Type
REMARK                         _______ _______ _______ _____ _____    ______ ____
ROOT
ATOM      2  N   LIG    1       54.672  58.457  38.222  0.00  0.00    -0.305 N 
ATOM      3  C   LIG    1       53.449  58.479  37.425  0.00  0.00    +0.108 C 
ATOM      4  C   LIG    1       53.178  59.916  36.965  0.00  0.00    +0.094 C 
ATOM      5  N   LIG    1       54.370  60.466  36.302  0.00  0.00    -0.270 NA
ATOM     18  C   LIG    1       55.594  60.428  37.093  0.00  0.00    +0.094 C 
ATOM     19  C   LIG    1       55.861  58.994  37.545  0.00  0.00    +0.108 C 
ENDROOT
BRANCH   2   1
ATOM      1  C   LIG    1       54.869  57.297  39.050  0.00  0.00    +0.051 A 
ATOM     20  C   LIG    1       55.592  56.164  38.611  0.00  0.00    +0.031 A 
ATOM     21  C   LIG    1       56.054  56.051  37.302  0.00  0.00    +0.003 A 
ATOM     22  C   LIG    1       56.759  54.922  36.894  0.00  0.00    +0.000 A 
ATOM     23  C   LIG    1       57.015  53.878  37.784  0.00  0.00    +0.002 A 
ATOM     24  C   LIG    1       56.563  53.975  39.096  0.00  0.00    +0.019 A 
ATOM     25  C   LIG    1       55.861  55.106  39.500  0.00  0.00    +0.082 A 
ATOM     26  N   LIG    1       55.427  55.158  40.771  0.00  0.00    -0.241 NA
ATOM     27  C   LIG    1       54.728  56.216  41.231  0.00  0.00    +0.154 A 
ATOM     32  C   LIG    1       54.449  57.307  40.392  0.00  0.00    +0.038 A 
BRANCH  27  28
ATOM     28  C   LIG    1       54.341  56.128  42.682  0.00  0.00    +0.435 C 
ATOM     29  F   LIG    1       54.577  54.904  43.109  0.00  0.00    -0.164 F 
ATOM     30  F   LIG    1       53.097  56.483  42.942  0.00  0.00    -0.164 F 
ATOM     31  F   LIG    1       55.149  56.937  43.333  0.00  0.00    -0.164 F 
ENDBRANCH  27  28
ENDBRANCH   2   1
BRANCH   5   6
ATOM      6  C   LIG    1       54.119  61.873  35.884  0.00  0.00    +0.077 C 
ATOM      7  C   LIG    1       53.360  61.971  34.551  0.00  0.00    +0.044 C 
ATOM      8  C   LIG    1       52.637  63.316  34.615  0.00  0.00    +0.150 C 
ATOM     16  N   LIG    1       52.456  63.558  36.043  0.00  0.00    -0.209 NA
ATOM     17  C   LIG    1       53.186  62.602  36.865  0.00  0.00    +0.105 C 
BRANCH   8   9
ATOM      9  C   LIG    1       51.343  63.343  33.823  0.00  0.00    +0.242 C 
ATOM     10  O   LIG    1       50.679  62.314  33.713  0.00  0.00    -0.273 OA
ATOM     11  N   LIG    1       50.968  64.526  33.317  0.00  0.00    -0.268 N 
ATOM     12  C   LIG    1       51.817  65.713  33.481  0.00  0.00    +0.106 C 
ATOM     13  C   LIG    1       51.189  66.956  32.841  0.00  0.00    +0.081 C 
ATOM     14  S   LIG    1       49.990  66.322  31.765  0.00  0.00    -0.117 S 
ATOM     15  C   LIG    1       49.728  64.762  32.565  0.00  0.00    +0.152 C 
ENDBRANCH   8   9
ENDBRANCH   5   6
TORSDOF 4
ENDMDL
MODEL 7
REMARK VINA RESULT:    -7.311      5.459      7.823
REMARK INTER + INTRA:          -9.714
REMARK INTER:                  -9.039
REMARK INTRA:                  -0.675
REMARK UNBOUND:                -0.693
REMARK  Name = ligand_1
REMARK                            x       y       z     vdW  Elec       q    Type
REMARK                         _______ _______ _______ _____ _____    ______ ____
ROOT
ATOM      2  N   LIG    1       52.334  62.420  35.322  0.00  0.00    -0.305 N 
ATOM      3  C   LIG    1       53.535  63.144  35.725  0.00  0.00    +0.108 C 
ATOM      4  C   LIG    1       54.273  62.332  36.795  0.00  0.00    +0.094 C 
ATOM      5  N   LIG    1       54.498  60.958  36.319  0.00  0.00    -0.270 NA
ATOM     18  C   LIG    1       53.300  60.242  35.901  0.00  0.00    +0.094 C 
ATOM     19  C   LIG    1       52.571  61.053  34.832  0.00  0.00    +0.108 C 
ENDROOT
BRANCH   2   1
ATOM      1  C   LIG    1       51.331  63.187  34.633  0.00  0.00    +0.051 A 
ATOM     20  C   LIG    1       49.948  62.918  34.760  0.00  0.00    +0.031 A 
ATOM     21  C   LIG    1       49.477  61.815  35.467  0.00  0.00    +0.003 A 
ATOM     22  C   LIG    1       48.110  61.571  35.573  0.00  0.00    +0.000 A 
ATOM     23  C   LIG    1       47.183  62.423  34.971  0.00  0.00    +0.002 A 
ATOM     24  C   LIG    1       47.636  63.531  34.263  0.00  0.00    +0.019 A 
ATOM     25  C   LIG    1       49.002  63.773  34.162  0.00  0.00    +0.082 A 
ATOM     26  N   LIG    1       49.402  64.845  33.458  0.00  0.00    -0.241 NA
ATOM     27  C   LIG    1       50.711  65.135  33.304  0.00  0.00    +0.154 A 
ATOM     32  C   LIG    1       51.695  64.327  33.896  0.00  0.00    +0.038 A 
BRANCH  27  28
ATOM     28  C   LIG    1       50.987  66.383  32.511  0.00  0.00    +0.435 C 
ATOM     29  F   LIG    1       51.779  66.077  31.503  0.00  0.00    -0.164 F 
ATOM     30  F   LIG    1       51.487  67.382  33.213  0.00  0.00    -0.164 F 
ATOM     31  F   LIG    1       49.834  66.766  32.006  0.00  0.00    -0.164 F 
ENDBRANCH  27  28
ENDBRANCH   2   1
BRANCH   5   6
ATOM      6  C   LIG    1       55.186  60.159  37.371  0.00  0.00    +0.077 C 
ATOM      7  C   LIG    1       54.224  59.252  38.153  0.00  0.00    +0.044 C 
ATOM      8  C   LIG    1       55.097  58.103  38.656  0.00  0.00    +0.150 C 
ATOM     16  N   LIG    1       56.188  58.032  37.690  0.00  0.00    -0.209 NA
ATOM     17  C   LIG    1       56.187  59.160  36.768  0.00  0.00    +0.105 C 
BRANCH   8   9
ATOM      9  C   LIG    1       54.341  56.797  38.819  0.00  0.00    +0.242 C 
ATOM     10  O   LIG    1       53.855  56.251  37.830  0.00  0.00    -0.273 OA
ATOM     11  N   LIG    1       54.286  56.280  40.054  0.00  0.00    -0.268 N 
ATOM     12  C   LIG    1       54.882  56.994  41.191  0.00  0.00    +0.106 C 
ATOM     13  C   LIG    1       54.719  56.215  42.501  0.00  0.00    +0.081 C 
ATOM     14  S   LIG    1       53.463  55.073  42.165  0.00  0.00    -0.117 S 
ATOM     15  C   LIG    1       53.644  55.006  40.403  0.00  0.00    +0.152 C 
ENDBRANCH   8   9
ENDBRANCH   5   6
TORSDOF 4
ENDMDL
MODEL 8
REMARK VINA RESULT:    -7.022      8.705     11.588
REMARK INTER + INTRA:          -9.357
REMARK INTER:                  -8.512
REMARK INTRA:                  -0.845
REMARK UNBOUND:                -0.693
REMARK  Name = ligand_1
REMARK                            x       y       z     vdW  Elec       q    Type
REMARK                         _______ _______ _______ _____ _____    ______ ____
ROOT
ATOM      2  N   LIG    1       56.574  55.966  35.741  0.00  0.00    -0.305 N 
ATOM      3  C   LIG    1       56.221  57.295  36.230  0.00  0.00    +0.108 C 
ATOM      4  C   LIG    1       55.554  57.161  37.604  0.00  0.00    +0.094 C 
ATOM      5  N   LIG    1       56.407  56.366  38.502  0.00  0.00    -0.270 NA
ATOM     18  C   LIG    1       56.772  55.047  38.004  0.00  0.00    +0.094 C 
ATOM     19  C   LIG    1       57.439  55.186  36.638  0.00  0.00    +0.108 C 
ENDROOT
BRANCH   2   1
ATOM      1  C   LIG    1       56.843  55.859  34.331  0.00  0.00    +0.051 A 
ATOM     20  C   LIG    1       56.004  55.137  33.450  0.00  0.00    +0.031 A 
ATOM     21  C   LIG    1       54.930  54.381  33.913  0.00  0.00    +0.003 A 
ATOM     22  C   LIG    1       54.123  53.677  33.025  0.00  0.00    +0.000 A 
ATOM     23  C   LIG    1       54.375  53.707  31.652  0.00  0.00    +0.002 A 
ATOM     24  C   LIG    1       55.442  54.458  31.172  0.00  0.00    +0.019 A 
ATOM     25  C   LIG    1       56.244  55.163  32.063  0.00  0.00    +0.082 A 
ATOM     26  N   LIG    1       57.275  55.866  31.563  0.00  0.00    -0.241 NA
ATOM     27  C   LIG    1       58.104  56.563  32.368  0.00  0.00    +0.154 A 
ATOM     32  C   LIG    1       57.899  56.587  33.757  0.00  0.00    +0.038 A 
BRANCH  27  28
ATOM     28  C   LIG    1       59.190  57.314  31.647  0.00  0.00    +0.435 C 
ATOM     29  F   LIG    1       60.350  56.756  31.929  0.00  0.00    -0.164 F 
ATOM     30  F   LIG    1       59.220  58.610  31.896  0.00  0.00    -0.164 F 
ATOM     31  F   LIG    1       58.971  57.143  30.361  0.00  0.00    -0.164 F 
ENDBRANCH  27  28
ENDBRANCH   2   1
BRANCH   5   6
ATOM      6  C   LIG    1       55.744  56.208  39.827  0.00  0.00    +0.077 C 
ATOM      7  C   LIG    1       54.241  56.522  39.781  0.00  0.00    +0.044 C 
ATOM      8  C   LIG    1       53.641  55.712  40.931  0.00  0.00    +0.150 C 
ATOM     16  N   LIG    1       54.560  54.592  41.097  0.00  0.00    -0.209 NA
ATOM     17  C   LIG    1       55.776  54.749  40.311  0.00  0.00    +0.105 C 
BRANCH   8   9
ATOM      9  C   LIG    1       52.204  55.291  40.686  0.00  0.00    +0.242 C 
ATOM     10  O   LIG    1       51.971  54.195  40.179  0.00  0.00    -0.273 OA
ATOM     11  N   LIG    1       51.247  56.140  41.088  0.00  0.00    -0.268 N 
ATOM     12  C   LIG    1       51.600  57.438  41.678  0.00  0.00    +0.106 C 
ATOM     13  C   LIG    1       50.355  58.237  42.081  0.00  0.00    +0.081 C 
ATOM     14  S   LIG    1       49.064  57.485  41.208  0.00  0.00    -0.117 S 
ATOM     15  C   LIG    1       49.804  55.889  40.982  0.00  0.00    +0.152 C 
ENDBRANCH   8   9
ENDBRANCH   5   6
TORSDOF 4
ENDMDL
MODEL 9
REMARK VINA RESULT:    -6.988      5.739      7.511
REMARK INTER + INTRA:          -9.315
REMARK INTER:                  -8.416
REMARK INTRA:                  -0.900
REMARK UNBOUND:                -0.693
REMARK  Name = ligand_1
REMARK                            x       y       z     vdW  Elec       q    Type
REMARK                         _______ _______ _______ _____ _____    ______ ____
ROOT
ATOM      2  N   LIG    1       52.680  59.526  37.391  0.00  0.00    -0.305 N 
ATOM      3  C   LIG    1       51.742  58.412  37.282  0.00  0.00    +0.108 C 
ATOM      4  C   LIG    1       52.455  57.221  36.633  0.00  0.00    +0.094 C 
ATOM      5  N   LIG    1       53.701  56.924  37.357  0.00  0.00    -0.270 NA
ATOM     18  C   LIG    1       54.628  58.040  37.480  0.00  0.00    +0.094 C 
ATOM     19  C   LIG    1       53.915  59.224  38.131  0.00  0.00    +0.108 C 
ENDROOT
BRANCH   2   1
ATOM      1  C   LIG    1       52.101  60.825  37.606  0.00  0.00    +0.051 A 
ATOM     20  C   LIG    1       52.423  61.943  36.802  0.00  0.00    +0.031 A 
ATOM     21  C   LIG    1       53.416  61.884  35.827  0.00  0.00    +0.003 A 
ATOM     22  C   LIG    1       53.716  63.001  35.052  0.00  0.00    +0.000 A 
ATOM     23  C   LIG    1       53.035  64.205  35.238  0.00  0.00    +0.002 A 
ATOM     24  C   LIG    1       52.039  64.281  36.207  0.00  0.00    +0.019 A 
ATOM     25  C   LIG    1       51.740  63.162  36.977  0.00  0.00    +0.082 A 
ATOM     26  N   LIG    1       50.783  63.278  37.912  0.00  0.00    -0.241 NA
ATOM     27  C   LIG    1       50.448  62.239  38.706  0.00  0.00    +0.154 A 
ATOM     32  C   LIG    1       51.084  60.996  38.562  0.00  0.00    +0.038 A 
BRANCH  27  28
ATOM     28  C   LIG    1       49.340  62.529  39.682  0.00  0.00    +0.435 C 
ATOM     29  F   LIG    1       49.383  61.634  40.648  0.00  0.00    -0.164 F 
ATOM     30  F   LIG    1       48.136  62.583  39.146  0.00  0.00    -0.164 F 
ATOM     31  F   LIG    1       49.611  63.701  40.216  0.00  0.00    -0.164 F 
ENDBRANCH  27  28
ENDBRANCH   2   1
BRANCH   5   6
ATOM      6  C   LIG    1       54.410  55.786  36.707  0.00  0.00    +0.077 C 
ATOM      7  C   LIG    1       54.954  56.143  35.315  0.00  0.00    +0.044 C 
ATOM      8  C   LIG    1       56.138  55.198  35.108  0.00  0.00    +0.150 C 
ATOM     16  N   LIG    1       56.595  54.896  36.461  0.00  0.00    -0.209 NA
ATOM     17  C   LIG    1       55.678  55.387  37.480  0.00  0.00    +0.105 C 
BRANCH   8   9
ATOM      9  C   LIG    1       57.219  55.773  34.213  0.00  0.00    +0.242 C 
ATOM     10  O   LIG    1       57.978  56.635  34.656  0.00  0.00    -0.273 OA
ATOM     11  N   LIG    1       57.317  55.264  32.977  0.00  0.00    -0.268 N 
ATOM     12  C   LIG    1       56.369  54.242  32.513  0.00  0.00    +0.106 C 
ATOM     13  C   LIG    1       56.676  53.790  31.081  0.00  0.00    +0.081 C 
ATOM     14  S   LIG    1       57.693  55.039  30.448  0.00  0.00    -0.117 S 
ATOM     15  C   LIG    1       58.326  55.656  31.985  0.00  0.00    +0.152 C 
ENDBRANCH   8   9
ENDBRANCH   5   6
TORSDOF 4
ENDMDL
