MODEL 9
REMARK VINA RESULT:    -7.022      8.705     11.588
REMARK INTER + INTRA:          -9.357
REMARK INTER:                  -8.512
REMARK INTRA:                  -0.845
REMARK UNBOUND:                -0.693
REMARK  Name = ligand_1
REMARK                            x       y       z     vdW  Elec       q    Type
REMARK                         _______ _______ _______ _____ _____    ______ ____
ROOT
ATOM      2  N   LIG    1       56.574  55.966  35.741  0.00  0.00    -0.305 N 
ATOM      3  C   LIG    1       56.221  57.295  36.230  0.00  0.00    +0.108 C 
ATOM      4  C   LIG    1       55.554  57.161  37.604  0.00  0.00    +0.094 C 
ATOM      5  N   LIG    1       56.407  56.366  38.502  0.00  0.00    -0.270 NA
ATOM     18  C   LIG    1       56.772  55.047  38.004  0.00  0.00    +0.094 C 
ATOM     19  C   LIG    1       57.439  55.186  36.638  0.00  0.00    +0.108 C 
ENDROOT
BRANCH   2   1
ATOM      1  C   LIG    1       56.843  55.859  34.331  0.00  0.00    +0.051 A 
ATOM     20  C   LIG    1       56.004  55.137  33.450  0.00  0.00    +0.031 A 
ATOM     21  C   LIG    1       54.930  54.381  33.913  0.00  0.00    +0.003 A 
ATOM     22  C   LIG    1       54.123  53.677  33.025  0.00  0.00    +0.000 A 
ATOM     23  C   LIG    1       54.375  53.707  31.652  0.00  0.00    +0.002 A 
ATOM     24  C   LIG    1       55.442  54.458  31.172  0.00  0.00    +0.019 A 
ATOM     25  C   LIG    1       56.244  55.163  32.063  0.00  0.00    +0.082 A 
ATOM     26  N   LIG    1       57.275  55.866  31.563  0.00  0.00    -0.241 NA
ATOM     27  C   LIG    1       58.104  56.563  32.368  0.00  0.00    +0.154 A 
ATOM     32  C   LIG    1       57.899  56.587  33.757  0.00  0.00    +0.038 A 
BRANCH  27  28
ATOM     28  C   LIG    1       59.190  57.314  31.647  0.00  0.00    +0.435 C 
ATOM     29  F   LIG    1       60.350  56.756  31.929  0.00  0.00    -0.164 F 
ATOM     30  F   LIG    1       59.220  58.610  31.896  0.00  0.00    -0.164 F 
ATOM     31  F   LIG    1       58.971  57.143  30.361  0.00  0.00    -0.164 F 
ENDBRANCH  27  28
ENDBRANCH   2   1
BRANCH   5   6
ATOM      6  C   LIG    1       55.744  56.208  39.827  0.00  0.00    +0.077 C 
ATOM      7  C   LIG    1       54.241  56.522  39.781  0.00  0.00    +0.044 C 
ATOM      8  C   LIG    1       53.641  55.712  40.931  0.00  0.00    +0.150 C 
ATOM     16  N   LIG    1       54.560  54.592  41.097  0.00  0.00    -0.209 NA
ATOM     17  C   LIG    1       55.776  54.749  40.311  0.00  0.00    +0.105 C 
BRANCH   8   9
ATOM      9  C   LIG    1       52.204  55.291  40.686  0.00  0.00    +0.242 C 
ATOM     10  O   LIG    1       51.971  54.195  40.179  0.00  0.00    -0.273 OA
ATOM     11  N   LIG    1       51.247  56.140  41.088  0.00  0.00    -0.268 N 
ATOM     12  C   LIG    1       51.600  57.438  41.678  0.00  0.00    +0.106 C 
ATOM     13  C   LIG    1       50.355  58.237  42.081  0.00  0.00    +0.081 C 
ATOM     14  S   LIG    1       49.064  57.485  41.208  0.00  0.00    -0.117 S 
ATOM     15  C   LIG    1       49.804  55.889  40.982  0.00  0.00    +0.152 C 
ENDBRANCH   8   9
ENDBRANCH   5   6
TORSDOF 4
ENDMDL
