MODEL 8
REMARK VINA RESULT:    -6.329      5.614      7.365
REMARK INTER + INTRA:          -8.586
REMARK INTER:                  -9.579
REMARK INTRA:                   0.993
REMARK UNBOUND:                -0.777
REMARK  Name = ligand_1
REMARK                            x       y       z     vdW  Elec       q    Type
REMARK                         _______ _______ _______ _____ _____    ______ ____
ROOT
ATOM      2  N   LIG    1       54.338  60.302  37.049  0.00  0.00    -0.305 N 
ATOM      3  C   LIG    1       53.451  60.271  35.891  0.00  0.00    +0.108 C 
ATOM      4  C   LIG    1       53.071  61.708  35.515  0.00  0.00    +0.094 C 
ATOM      5  N   LIG    1       54.284  62.525  35.356  0.00  0.00    -0.270 NA
ATOM     18  C   LIG    1       55.177  62.540  36.508  0.00  0.00    +0.094 C 
ATOM     19  C   LIG    1       55.556  61.108  36.875  0.00  0.00    +0.108 C 
ENDROOT
BRANCH   2   1
ATOM      1  C   LIG    1       54.481  59.066  37.772  0.00  0.00    +0.051 A 
ATOM     20  C   LIG    1       53.513  58.609  38.696  0.00  0.00    +0.031 A 
ATOM     21  C   LIG    1       52.417  59.389  39.056  0.00  0.00    +0.003 A 
ATOM     22  C   LIG    1       51.481  58.918  39.972  0.00  0.00    +0.000 A 
ATOM     23  C   LIG    1       51.621  57.657  40.554  0.00  0.00    +0.002 A 
ATOM     24  C   LIG    1       52.709  56.864  40.204  0.00  0.00    +0.019 A 
ATOM     25  C   LIG    1       53.641  57.338  39.286  0.00  0.00    +0.082 A 
ATOM     26  N   LIG    1       54.686  56.549  38.985  0.00  0.00    -0.241 NA
ATOM     27  C   LIG    1       55.637  56.947  38.115  0.00  0.00    +0.154 A 
ATOM     32  C   LIG    1       55.548  58.197  37.483  0.00  0.00    +0.038 A 
BRANCH  27  28
ATOM     28  C   LIG    1       56.723  55.935  37.869  0.00  0.00    +0.435 C 
ATOM     29  F   LIG    1       56.449  55.281  36.759  0.00  0.00    -0.164 F 
ATOM     30  F   LIG    1       56.931  55.098  38.868  0.00  0.00    -0.164 F 
ATOM     31  F   LIG    1       57.829  56.618  37.663  0.00  0.00    -0.164 F 
ENDBRANCH  27  28
ENDBRANCH   2   1
BRANCH   5   6
ATOM      6  C   LIG    1       53.913  63.929  35.024  0.00  0.00    +0.077 C 
ATOM      7  C   LIG    1       53.309  64.068  33.618  0.00  0.00    +0.044 C 
ATOM      8  C   LIG    1       52.425  65.313  33.697  0.00  0.00    +0.150 C 
ATOM     16  N   LIG    1       52.051  65.397  35.105  0.00  0.00    -0.209 NA
ATOM     17  C   LIG    1       52.791  64.455  35.934  0.00  0.00    +0.105 C 
BRANCH   8   9
ATOM      9  C   LIG    1       51.239  65.271  32.753  0.00  0.00    +0.242 C 
ATOM     10  O   LIG    1       51.318  65.822  31.655  0.00  0.00    -0.273 OA
ATOM     11  N   LIG    1       50.165  64.580  33.160  0.00  0.00    -0.268 N 
ATOM     12  C   LIG    1       50.137  63.955  34.489  0.00  0.00    +0.106 C 
ATOM     13  C   LIG    1       48.825  63.204  34.737  0.00  0.00    +0.081 C 
ATOM     14  S   LIG    1       47.738  63.837  33.549  0.00  0.00    -0.117 S 
ATOM     15  C   LIG    1       48.943  64.385  32.368  0.00  0.00    +0.152 C 
ENDBRANCH   8   9
ENDBRANCH   5   6
TORSDOF 4
ENDMDL
