MODEL 9
REMARK VINA RESULT:    -6.988      5.739      7.511
REMARK INTER + INTRA:          -9.315
REMARK INTER:                  -8.416
REMARK INTRA:                  -0.900
REMARK UNBOUND:                -0.693
REMARK  Name = ligand_1
REMARK                            x       y       z     vdW  Elec       q    Type
REMARK                         _______ _______ _______ _____ _____    ______ ____
ROOT
ATOM      2  N   LIG    1       52.680  59.526  37.391  0.00  0.00    -0.305 N 
ATOM      3  C   LIG    1       51.742  58.412  37.282  0.00  0.00    +0.108 C 
ATOM      4  C   LIG    1       52.455  57.221  36.633  0.00  0.00    +0.094 C 
ATOM      5  N   LIG    1       53.701  56.924  37.357  0.00  0.00    -0.270 NA
ATOM     18  C   LIG    1       54.628  58.040  37.480  0.00  0.00    +0.094 C 
ATOM     19  C   LIG    1       53.915  59.224  38.131  0.00  0.00    +0.108 C 
ENDROOT
BRANCH   2   1
ATOM      1  C   LIG    1       52.101  60.825  37.606  0.00  0.00    +0.051 A 
ATOM     20  C   LIG    1       52.423  61.943  36.802  0.00  0.00    +0.031 A 
ATOM     21  C   LIG    1       53.416  61.884  35.827  0.00  0.00    +0.003 A 
ATOM     22  C   LIG    1       53.716  63.001  35.052  0.00  0.00    +0.000 A 
ATOM     23  C   LIG    1       53.035  64.205  35.238  0.00  0.00    +0.002 A 
ATOM     24  C   LIG    1       52.039  64.281  36.207  0.00  0.00    +0.019 A 
ATOM     25  C   LIG    1       51.740  63.162  36.977  0.00  0.00    +0.082 A 
ATOM     26  N   LIG    1       50.783  63.278  37.912  0.00  0.00    -0.241 NA
ATOM     27  C   LIG    1       50.448  62.239  38.706  0.00  0.00    +0.154 A 
ATOM     32  C   LIG    1       51.084  60.996  38.562  0.00  0.00    +0.038 A 
BRANCH  27  28
ATOM     28  C   LIG    1       49.340  62.529  39.682  0.00  0.00    +0.435 C 
ATOM     29  F   LIG    1       49.383  61.634  40.648  0.00  0.00    -0.164 F 
ATOM     30  F   LIG    1       48.136  62.583  39.146  0.00  0.00    -0.164 F 
ATOM     31  F   LIG    1       49.611  63.701  40.216  0.00  0.00    -0.164 F 
ENDBRANCH  27  28
ENDBRANCH   2   1
BRANCH   5   6
ATOM      6  C   LIG    1       54.410  55.786  36.707  0.00  0.00    +0.077 C 
ATOM      7  C   LIG    1       54.954  56.143  35.315  0.00  0.00    +0.044 C 
ATOM      8  C   LIG    1       56.138  55.198  35.108  0.00  0.00    +0.150 C 
ATOM     16  N   LIG    1       56.595  54.896  36.461  0.00  0.00    -0.209 NA
ATOM     17  C   LIG    1       55.678  55.387  37.480  0.00  0.00    +0.105 C 
BRANCH   8   9
ATOM      9  C   LIG    1       57.219  55.773  34.213  0.00  0.00    +0.242 C 
ATOM     10  O   LIG    1       57.978  56.635  34.656  0.00  0.00    -0.273 OA
ATOM     11  N   LIG    1       57.317  55.264  32.977  0.00  0.00    -0.268 N 
ATOM     12  C   LIG    1       56.369  54.242  32.513  0.00  0.00    +0.106 C 
ATOM     13  C   LIG    1       56.676  53.790  31.081  0.00  0.00    +0.081 C 
ATOM     14  S   LIG    1       57.693  55.039  30.448  0.00  0.00    -0.117 S 
ATOM     15  C   LIG    1       58.326  55.656  31.985  0.00  0.00    +0.152 C 
ENDBRANCH   8   9
ENDBRANCH   5   6
TORSDOF 4
ENDMDL
