MODEL 1
REMARK VINA RESULT:    -8.472      0.000      0.000
REMARK INTER + INTRA:         -11.146
REMARK INTER:                 -10.453
REMARK INTRA:                  -0.693
REMARK UNBOUND:                -0.693
REMARK  Name = ligand_1
REMARK                            x       y       z     vdW  Elec       q    Type
REMARK                         _______ _______ _______ _____ _____    ______ ____
ROOT
ATOM      2  N   LIG    1       50.215  61.908  38.281  0.00  0.00    -0.305 N 
ATOM      3  C   LIG    1       50.396  63.260  38.800  0.00  0.00    +0.108 C 
ATOM      4  C   LIG    1       51.621  63.892  38.131  0.00  0.00    +0.094 C 
ATOM      5  N   LIG    1       51.506  63.791  36.668  0.00  0.00    -0.270 NA
ATOM     18  C   LIG    1       51.309  62.442  36.153  0.00  0.00    +0.094 C 
ATOM     19  C   LIG    1       50.084  61.818  36.819  0.00  0.00    +0.108 C 
ENDROOT
BRANCH   2   1
ATOM      1  C   LIG    1       49.374  61.036  39.058  0.00  0.00    +0.051 A 
ATOM     20  C   LIG    1       49.888  59.950  39.803  0.00  0.00    +0.031 A 
ATOM     21  C   LIG    1       51.229  59.580  39.732  0.00  0.00    +0.003 A 
ATOM     22  C   LIG    1       51.708  58.503  40.472  0.00  0.00    +0.000 A 
ATOM     23  C   LIG    1       50.856  57.766  41.297  0.00  0.00    +0.002 A 
ATOM     24  C   LIG    1       49.514  58.123  41.381  0.00  0.00    +0.019 A 
ATOM     25  C   LIG    1       49.041  59.202  40.642  0.00  0.00    +0.082 A 
ATOM     26  N   LIG    1       47.735  59.506  40.738  0.00  0.00    -0.241 NA
ATOM     27  C   LIG    1       47.201  60.530  40.041  0.00  0.00    +0.154 A 
ATOM     32  C   LIG    1       48.005  61.321  39.204  0.00  0.00    +0.038 A 
BRANCH  27  28
ATOM     28  C   LIG    1       45.733  60.753  40.282  0.00  0.00    +0.435 C 
ATOM     29  F   LIG    1       45.358  60.023  41.312  0.00  0.00    -0.164 F 
ATOM     30  F   LIG    1       44.962  60.520  39.236  0.00  0.00    -0.164 F 
ATOM     31  F   LIG    1       45.599  62.017  40.623  0.00  0.00    -0.164 F 
ENDBRANCH  27  28
ENDBRANCH   2   1
BRANCH   5   6
ATOM      6  C   LIG    1       52.712  64.375  36.019  0.00  0.00    +0.077 C 
ATOM      7  C   LIG    1       53.989  64.177  36.850  0.00  0.00    +0.044 C 
ATOM      8  C   LIG    1       55.125  64.202  35.827  0.00  0.00    +0.150 C 
ATOM     16  N   LIG    1       54.499  63.755  34.587  0.00  0.00    -0.209 NA
ATOM     17  C   LIG    1       53.050  63.667  34.697  0.00  0.00    +0.105 C 
BRANCH   8   9
ATOM      9  C   LIG    1       56.325  63.370  36.239  0.00  0.00    +0.242 C 
ATOM     10  O   LIG    1       56.504  62.267  35.723  0.00  0.00    -0.273 OA
ATOM     11  N   LIG    1       57.165  63.918  37.128  0.00  0.00    -0.268 N 
ATOM     12  C   LIG    1       56.883  65.237  37.709  0.00  0.00    +0.106 C 
ATOM     13  C   LIG    1       57.980  65.676  38.684  0.00  0.00    +0.081 C 
ATOM     14  S   LIG    1       58.824  64.214  39.065  0.00  0.00    -0.117 S 
ATOM     15  C   LIG    1       58.403  63.290  37.611  0.00  0.00    +0.152 C 
ENDBRANCH   8   9
ENDBRANCH   5   6
TORSDOF 4
ENDMDL
