MODEL 9
REMARK VINA RESULT:    -6.717      4.027      5.234
REMARK INTER + INTRA:          -8.989
REMARK INTER:                  -8.097
REMARK INTRA:                  -0.892
REMARK UNBOUND:                -0.702
REMARK  Name = ligand_1
REMARK                            x       y       z     vdW  Elec       q    Type
REMARK                         _______ _______ _______ _____ _____    ______ ____
ROOT
ATOM      2  N   LIG    1       51.424  58.178  38.889  0.00  0.00    -0.305 N 
ATOM      3  C   LIG    1       51.012  59.571  39.028  0.00  0.00    +0.108 C 
ATOM      4  C   LIG    1       51.680  60.402  37.926  0.00  0.00    +0.094 C 
ATOM      5  N   LIG    1       51.418  59.798  36.611  0.00  0.00    -0.270 NA
ATOM     18  C   LIG    1       51.815  58.402  36.479  0.00  0.00    +0.094 C 
ATOM     19  C   LIG    1       51.143  57.578  37.576  0.00  0.00    +0.108 C 
ENDROOT
BRANCH   2   1
ATOM      1  C   LIG    1       51.219  57.337  40.039  0.00  0.00    +0.051 A 
ATOM     20  C   LIG    1       52.276  56.953  40.897  0.00  0.00    +0.031 A 
ATOM     21  C   LIG    1       53.603  57.265  40.612  0.00  0.00    +0.003 A 
ATOM     22  C   LIG    1       54.625  56.870  41.471  0.00  0.00    +0.000 A 
ATOM     23  C   LIG    1       54.344  56.150  42.633  0.00  0.00    +0.002 A 
ATOM     24  C   LIG    1       53.023  55.832  42.935  0.00  0.00    +0.019 A 
ATOM     25  C   LIG    1       52.005  56.231  42.075  0.00  0.00    +0.082 A 
ATOM     26  N   LIG    1       50.744  55.893  42.391  0.00  0.00    -0.241 NA
ATOM     27  C   LIG    1       49.707  56.232  41.598  0.00  0.00    +0.154 A 
ATOM     32  C   LIG    1       49.918  56.969  40.422  0.00  0.00    +0.038 A 
BRANCH  27  28
ATOM     28  C   LIG    1       48.360  55.800  42.111  0.00  0.00    +0.435 C 
ATOM     29  F   LIG    1       48.460  54.573  42.580  0.00  0.00    -0.164 F 
ATOM     30  F   LIG    1       47.382  55.886  41.228  0.00  0.00    -0.164 F 
ATOM     31  F   LIG    1       48.075  56.589  43.124  0.00  0.00    -0.164 F 
ENDBRANCH  27  28
ENDBRANCH   2   1
BRANCH   5   6
ATOM      6  C   LIG    1       52.095  60.586  35.543  0.00  0.00    +0.077 C 
ATOM      7  C   LIG    1       51.458  61.968  35.330  0.00  0.00    +0.044 C 
ATOM      8  C   LIG    1       52.585  62.831  34.763  0.00  0.00    +0.150 C 
ATOM     16  N   LIG    1       53.803  62.211  35.274  0.00  0.00    -0.209 NA
ATOM     17  C   LIG    1       53.545  60.930  35.919  0.00  0.00    +0.105 C 
BRANCH   8   9
ATOM      9  C   LIG    1       52.454  64.301  35.115  0.00  0.00    +0.242 C 
ATOM     10  O   LIG    1       52.748  64.681  36.248  0.00  0.00    -0.273 OA
ATOM     11  N   LIG    1       52.062  65.126  34.134  0.00  0.00    -0.268 N 
ATOM     12  C   LIG    1       51.719  64.599  32.806  0.00  0.00    +0.106 C 
ATOM     13  C   LIG    1       51.316  65.716  31.838  0.00  0.00    +0.081 C 
ATOM     14  S   LIG    1       50.951  67.060  32.865  0.00  0.00    -0.117 S 
ATOM     15  C   LIG    1       51.924  66.582  34.267  0.00  0.00    +0.152 C 
ENDBRANCH   8   9
ENDBRANCH   5   6
TORSDOF 4
ENDMDL
