MODEL 6
REMARK VINA RESULT:    -7.571      5.271      7.032
REMARK INTER + INTRA:         -10.034
REMARK INTER:                  -9.513
REMARK INTRA:                  -0.521
REMARK UNBOUND:                -0.693
REMARK  Name = ligand_1
REMARK                            x       y       z     vdW  Elec       q    Type
REMARK                         _______ _______ _______ _____ _____    ______ ____
ROOT
ATOM      2  N   LIG    1       53.558  57.949  38.774  0.00  0.00    -0.305 N 
ATOM      3  C   LIG    1       54.503  59.016  38.461  0.00  0.00    +0.108 C 
ATOM      4  C   LIG    1       54.041  59.736  37.190  0.00  0.00    +0.094 C 
ATOM      5  N   LIG    1       52.640  60.160  37.331  0.00  0.00    -0.270 NA
ATOM     18  C   LIG    1       51.700  59.096  37.660  0.00  0.00    +0.094 C 
ATOM     19  C   LIG    1       52.162  58.385  38.930  0.00  0.00    +0.108 C 
ENDROOT
BRANCH   2   1
ATOM      1  C   LIG    1       54.022  56.936  39.685  0.00  0.00    +0.051 A 
ATOM     20  C   LIG    1       54.833  55.855  39.269  0.00  0.00    +0.031 A 
ATOM     21  C   LIG    1       55.132  55.636  37.926  0.00  0.00    +0.003 A 
ATOM     22  C   LIG    1       55.929  54.561  37.544  0.00  0.00    +0.000 A 
ATOM     23  C   LIG    1       56.442  53.676  38.494  0.00  0.00    +0.002 A 
ATOM     24  C   LIG    1       56.155  53.881  39.840  0.00  0.00    +0.019 A 
ATOM     25  C   LIG    1       55.360  54.958  40.218  0.00  0.00    +0.082 A 
ATOM     26  N   LIG    1       55.092  55.115  41.525  0.00  0.00    -0.241 NA
ATOM     27  C   LIG    1       54.318  56.128  41.965  0.00  0.00    +0.154 A 
ATOM     32  C   LIG    1       53.782  57.062  41.064  0.00  0.00    +0.038 A 
BRANCH  27  28
ATOM     28  C   LIG    1       54.138  56.176  43.458  0.00  0.00    +0.435 C 
ATOM     29  F   LIG    1       54.941  57.096  43.952  0.00  0.00    -0.164 F 
ATOM     30  F   LIG    1       54.317  55.020  44.071  0.00  0.00    -0.164 F 
ATOM     31  F   LIG    1       52.902  56.573  43.673  0.00  0.00    -0.164 F 
ENDBRANCH  27  28
ENDBRANCH   2   1
BRANCH   5   6
ATOM      6  C   LIG    1       52.180  60.830  36.082  0.00  0.00    +0.077 C 
ATOM      7  C   LIG    1       51.516  62.190  36.347  0.00  0.00    +0.044 C 
ATOM      8  C   LIG    1       51.722  62.979  35.054  0.00  0.00    +0.150 C 
ATOM     16  N   LIG    1       52.927  62.401  34.470  0.00  0.00    -0.209 NA
ATOM     17  C   LIG    1       53.358  61.195  35.164  0.00  0.00    +0.105 C 
BRANCH   8   9
ATOM      9  C   LIG    1       51.807  64.479  35.271  0.00  0.00    +0.242 C 
ATOM     10  O   LIG    1       52.078  64.915  36.389  0.00  0.00    -0.273 OA
ATOM     11  N   LIG    1       51.623  65.257  34.196  0.00  0.00    -0.268 N 
ATOM     12  C   LIG    1       51.293  64.666  32.892  0.00  0.00    +0.106 C 
ATOM     13  C   LIG    1       51.145  65.735  31.804  0.00  0.00    +0.081 C 
ATOM     14  S   LIG    1       50.932  67.211  32.681  0.00  0.00    -0.117 S 
ATOM     15  C   LIG    1       51.715  66.723  34.195  0.00  0.00    +0.152 C 
ENDBRANCH   8   9
ENDBRANCH   5   6
TORSDOF 4
ENDMDL
