MODEL 1
REMARK VINA RESULT:    -7.983      0.000      0.000
REMARK INTER + INTRA:         -10.621
REMARK INTER:                  -9.850
REMARK INTRA:                  -0.771
REMARK UNBOUND:                -0.771
REMARK  Name = ligand_1
REMARK                            x       y       z     vdW  Elec       q    Type
REMARK                         _______ _______ _______ _____ _____    ______ ____
ROOT
ATOM      2  N   LIG    1       51.266  62.583  37.483  0.00  0.00    -0.305 N 
ATOM      3  C   LIG    1       50.827  63.312  38.669  0.00  0.00    +0.108 C 
ATOM      4  C   LIG    1       49.662  62.555  39.317  0.00  0.00    +0.094 C 
ATOM      5  N   LIG    1       50.038  61.151  39.546  0.00  0.00    -0.270 NA
ATOM     18  C   LIG    1       50.492  60.430  38.364  0.00  0.00    +0.094 C 
ATOM     19  C   LIG    1       51.655  61.185  37.725  0.00  0.00    +0.108 C 
ENDROOT
BRANCH   2   1
ATOM      1  C   LIG    1       52.067  63.322  36.544  0.00  0.00    +0.051 A 
ATOM     20  C   LIG    1       51.509  63.989  35.429  0.00  0.00    +0.031 A 
ATOM     21  C   LIG    1       50.161  63.870  35.101  0.00  0.00    +0.003 A 
ATOM     22  C   LIG    1       49.638  64.533  33.995  0.00  0.00    +0.000 A 
ATOM     23  C   LIG    1       50.452  65.329  33.187  0.00  0.00    +0.002 A 
ATOM     24  C   LIG    1       51.801  65.461  33.501  0.00  0.00    +0.019 A 
ATOM     25  C   LIG    1       52.319  64.798  34.609  0.00  0.00    +0.082 A 
ATOM     26  N   LIG    1       53.629  64.938  34.871  0.00  0.00    -0.241 NA
ATOM     27  C   LIG    1       54.204  64.314  35.920  0.00  0.00    +0.154 A 
ATOM     32  C   LIG    1       53.440  63.512  36.782  0.00  0.00    +0.038 A 
BRANCH  27  28
ATOM     28  C   LIG    1       55.673  64.598  36.088  0.00  0.00    +0.435 C 
ATOM     29  F   LIG    1       55.940  64.699  37.374  0.00  0.00    -0.164 F 
ATOM     30  F   LIG    1       56.106  65.659  35.435  0.00  0.00    -0.164 F 
ATOM     31  F   LIG    1       56.310  63.540  35.633  0.00  0.00    -0.164 F 
ENDBRANCH  27  28
ENDBRANCH   2   1
BRANCH   5   6
ATOM      6  C   LIG    1       48.895  60.408  40.145  0.00  0.00    +0.077 C 
ATOM      7  C   LIG    1       48.818  58.950  39.667  0.00  0.00    +0.044 C 
ATOM      8  C   LIG    1       48.098  58.210  40.795  0.00  0.00    +0.150 C 
ATOM     16  N   LIG    1       48.395  58.997  41.987  0.00  0.00    -0.209 NA
ATOM     17  C   LIG    1       49.043  60.262  41.669  0.00  0.00    +0.105 C 
BRANCH   8   9
ATOM      9  C   LIG    1       48.500  56.751  40.912  0.00  0.00    +0.242 C 
ATOM     10  O   LIG    1       49.502  56.449  41.559  0.00  0.00    -0.273 OA
ATOM     11  N   LIG    1       47.695  55.853  40.328  0.00  0.00    -0.268 N 
ATOM     12  C   LIG    1       46.519  56.288  39.563  0.00  0.00    +0.106 C 
ATOM     13  C   LIG    1       45.735  55.099  38.999  0.00  0.00    +0.081 C 
ATOM     14  S   LIG    1       46.848  53.776  39.079  0.00  0.00    -0.117 S 
ATOM     15  C   LIG    1       47.890  54.397  40.372  0.00  0.00    +0.152 C 
ENDBRANCH   8   9
ENDBRANCH   5   6
TORSDOF 4
ENDMDL
MODEL 2
REMARK VINA RESULT:    -7.739      8.690      9.566
REMARK INTER + INTRA:         -10.320
REMARK INTER:                  -9.653
REMARK INTRA:                  -0.667
REMARK UNBOUND:                -0.771
REMARK  Name = ligand_1
REMARK                            x       y       z     vdW  Elec       q    Type
REMARK                         _______ _______ _______ _____ _____    ______ ____
ROOT
ATOM      2  N   LIG    1       56.811  55.469  34.193  0.00  0.00    -0.305 N 
ATOM      3  C   LIG    1       56.883  56.601  35.111  0.00  0.00    +0.108 C 
ATOM      4  C   LIG    1       55.864  56.398  36.237  0.00  0.00    +0.094 C 
ATOM      5  N   LIG    1       56.051  55.076  36.855  0.00  0.00    -0.270 NA
ATOM     18  C   LIG    1       55.995  53.948  35.934  0.00  0.00    +0.094 C 
ATOM     19  C   LIG    1       57.016  54.153  34.817  0.00  0.00    +0.108 C 
ENDROOT
BRANCH   2   1
ATOM      1  C   LIG    1       57.397  55.665  32.895  0.00  0.00    +0.051 A 
ATOM     20  C   LIG    1       56.848  55.102  31.719  0.00  0.00    +0.031 A 
ATOM     21  C   LIG    1       55.771  54.220  31.762  0.00  0.00    +0.003 A 
ATOM     22  C   LIG    1       55.252  53.676  30.591  0.00  0.00    +0.000 A 
ATOM     23  C   LIG    1       55.801  53.998  29.348  0.00  0.00    +0.002 A 
ATOM     24  C   LIG    1       56.876  54.880  29.286  0.00  0.00    +0.019 A 
ATOM     25  C   LIG    1       57.389  55.423  30.460  0.00  0.00    +0.082 A 
ATOM     26  N   LIG    1       58.437  56.259  30.361  0.00  0.00    -0.241 NA
ATOM     27  C   LIG    1       58.997  56.813  31.457  0.00  0.00    +0.154 A 
ATOM     32  C   LIG    1       58.484  56.543  32.736  0.00  0.00    +0.038 A 
BRANCH  27  28
ATOM     28  C   LIG    1       60.142  57.745  31.170  0.00  0.00    +0.435 C 
ATOM     29  F   LIG    1       60.116  58.067  29.893  0.00  0.00    -0.164 F 
ATOM     30  F   LIG    1       61.329  57.279  31.512  0.00  0.00    -0.164 F 
ATOM     31  F   LIG    1       59.913  58.842  31.860  0.00  0.00    -0.164 F 
ENDBRANCH  27  28
ENDBRANCH   2   1
BRANCH   5   6
ATOM      6  C   LIG    1       55.039  54.865  37.927  0.00  0.00    +0.077 C 
ATOM      7  C   LIG    1       55.627  55.018  39.338  0.00  0.00    +0.044 C 
ATOM      8  C   LIG    1       54.440  55.429  40.210  0.00  0.00    +0.150 C 
ATOM     16  N   LIG    1       53.529  56.093  39.284  0.00  0.00    -0.209 NA
ATOM     17  C   LIG    1       53.940  55.939  37.895  0.00  0.00    +0.105 C 
BRANCH   8   9
ATOM      9  C   LIG    1       54.834  56.287  41.398  0.00  0.00    +0.242 C 
ATOM     10  O   LIG    1       55.223  57.439  41.212  0.00  0.00    -0.273 OA
ATOM     11  N   LIG    1       54.688  55.741  42.613  0.00  0.00    -0.268 N 
ATOM     12  C   LIG    1       54.227  54.354  42.759  0.00  0.00    +0.106 C 
ATOM     13  C   LIG    1       54.116  53.943  44.232  0.00  0.00    +0.081 C 
ATOM     14  S   LIG    1       55.062  55.120  45.076  0.00  0.00    -0.117 S 
ATOM     15  C   LIG    1       54.969  56.427  43.881  0.00  0.00    +0.152 C 
ENDBRANCH   8   9
ENDBRANCH   5   6
TORSDOF 4
ENDMDL
MODEL 3
REMARK VINA RESULT:    -7.669      1.648      2.076
REMARK INTER + INTRA:         -10.233
REMARK INTER:                  -9.866
REMARK INTRA:                  -0.367
REMARK UNBOUND:                -0.771
REMARK  Name = ligand_1
REMARK                            x       y       z     vdW  Elec       q    Type
REMARK                         _______ _______ _______ _____ _____    ______ ____
ROOT
ATOM      2  N   LIG    1       51.183  62.455  37.281  0.00  0.00    -0.305 N 
ATOM      3  C   LIG    1       50.412  61.402  36.628  0.00  0.00    +0.108 C 
ATOM      4  C   LIG    1       49.892  60.429  37.692  0.00  0.00    +0.094 C 
ATOM      5  N   LIG    1       49.179  61.169  38.745  0.00  0.00    -0.270 NA
ATOM     18  C   LIG    1       49.945  62.230  39.385  0.00  0.00    +0.094 C 
ATOM     19  C   LIG    1       50.456  63.199  38.321  0.00  0.00    +0.108 C 
ENDROOT
BRANCH   2   1
ATOM      1  C   LIG    1       52.059  63.220  36.434  0.00  0.00    +0.051 A 
ATOM     20  C   LIG    1       51.587  63.969  35.331  0.00  0.00    +0.031 A 
ATOM     21  C   LIG    1       50.257  63.914  34.923  0.00  0.00    +0.003 A 
ATOM     22  C   LIG    1       49.819  64.658  33.831  0.00  0.00    +0.000 A 
ATOM     23  C   LIG    1       50.702  65.471  33.118  0.00  0.00    +0.002 A 
ATOM     24  C   LIG    1       52.034  65.539  33.514  0.00  0.00    +0.019 A 
ATOM     25  C   LIG    1       52.466  64.796  34.608  0.00  0.00    +0.082 A 
ATOM     26  N   LIG    1       53.763  64.876  34.951  0.00  0.00    -0.241 NA
ATOM     27  C   LIG    1       54.258  64.174  35.991  0.00  0.00    +0.154 A 
ATOM     32  C   LIG    1       53.421  63.349  36.759  0.00  0.00    +0.038 A 
BRANCH  27  28
ATOM     28  C   LIG    1       55.722  64.397  36.257  0.00  0.00    +0.435 C 
ATOM     29  F   LIG    1       56.086  65.532  35.694  0.00  0.00    -0.164 F 
ATOM     30  F   LIG    1       56.508  63.410  35.872  0.00  0.00    -0.164 F 
ATOM     31  F   LIG    1       55.846  64.544  37.559  0.00  0.00    -0.164 F 
ENDBRANCH  27  28
ENDBRANCH   2   1
BRANCH   5   6
ATOM      6  C   LIG    1       48.703  60.227  39.797  0.00  0.00    +0.077 C 
ATOM      7  C   LIG    1       49.417  58.868  39.746  0.00  0.00    +0.044 C 
ATOM      8  C   LIG    1       49.331  58.331  41.175  0.00  0.00    +0.150 C 
ATOM     16  N   LIG    1       49.232  59.529  42.002  0.00  0.00    -0.209 NA
ATOM     17  C   LIG    1       49.031  60.735  41.210  0.00  0.00    +0.105 C 
BRANCH   8   9
ATOM      9  C   LIG    1       50.489  57.425  41.549  0.00  0.00    +0.242 C 
ATOM     10  O   LIG    1       51.641  57.851  41.473  0.00  0.00    -0.273 OA
ATOM     11  N   LIG    1       50.180  56.199  41.994  0.00  0.00    -0.268 N 
ATOM     12  C   LIG    1       48.781  55.755  42.048  0.00  0.00    +0.106 C 
ATOM     13  C   LIG    1       48.657  54.332  42.604  0.00  0.00    +0.081 C 
ATOM     14  S   LIG    1       50.251  53.675  42.455  0.00  0.00    -0.117 S 
ATOM     15  C   LIG    1       51.156  55.200  42.448  0.00  0.00    +0.152 C 
ENDBRANCH   8   9
ENDBRANCH   5   6
TORSDOF 4
ENDMDL
MODEL 4
REMARK VINA RESULT:    -7.618      2.726      3.740
REMARK INTER + INTRA:         -10.170
REMARK INTER:                  -9.516
REMARK INTRA:                  -0.654
REMARK UNBOUND:                -0.771
REMARK  Name = ligand_1
REMARK                            x       y       z     vdW  Elec       q    Type
REMARK                         _______ _______ _______ _____ _____    ______ ____
ROOT
ATOM      2  N   LIG    1       50.714  63.052  36.599  0.00  0.00    -0.305 N 
ATOM      3  C   LIG    1       49.399  62.640  36.116  0.00  0.00    +0.108 C 
ATOM      4  C   LIG    1       48.911  61.451  36.950  0.00  0.00    +0.094 C 
ATOM      5  N   LIG    1       48.980  61.777  38.383  0.00  0.00    -0.270 NA
ATOM     18  C   LIG    1       50.289  62.204  38.859  0.00  0.00    +0.094 C 
ATOM     19  C   LIG    1       50.769  63.392  38.028  0.00  0.00    +0.108 C 
ENDROOT
BRANCH   2   1
ATOM      1  C   LIG    1       51.488  63.876  35.709  0.00  0.00    +0.051 A 
ATOM     20  C   LIG    1       52.900  63.822  35.658  0.00  0.00    +0.031 A 
ATOM     21  C   LIG    1       53.638  63.053  36.555  0.00  0.00    +0.003 A 
ATOM     22  C   LIG    1       55.028  63.021  36.485  0.00  0.00    +0.000 A 
ATOM     23  C   LIG    1       55.713  63.762  35.521  0.00  0.00    +0.002 A 
ATOM     24  C   LIG    1       54.992  64.534  34.616  0.00  0.00    +0.019 A 
ATOM     25  C   LIG    1       53.603  64.560  34.687  0.00  0.00    +0.082 A 
ATOM     26  N   LIG    1       52.941  65.330  33.806  0.00  0.00    -0.241 NA
ATOM     27  C   LIG    1       51.595  65.416  33.823  0.00  0.00    +0.154 A 
ATOM     32  C   LIG    1       50.844  64.686  34.757  0.00  0.00    +0.038 A 
BRANCH  27  28
ATOM     28  C   LIG    1       51.012  66.299  32.753  0.00  0.00    +0.435 C 
ATOM     29  F   LIG    1       51.214  67.558  33.087  0.00  0.00    -0.164 F 
ATOM     30  F   LIG    1       49.736  66.081  32.496  0.00  0.00    -0.164 F 
ATOM     31  F   LIG    1       51.702  66.064  31.658  0.00  0.00    -0.164 F 
ENDBRANCH  27  28
ENDBRANCH   2   1
BRANCH   5   6
ATOM      6  C   LIG    1       48.536  60.610  39.195  0.00  0.00    +0.077 C 
ATOM      7  C   LIG    1       49.537  59.445  39.157  0.00  0.00    +0.044 C 
ATOM      8  C   LIG    1       49.301  58.689  40.465  0.00  0.00    +0.150 C 
ATOM     16  N   LIG    1       48.775  59.702  41.374  0.00  0.00    -0.209 NA
ATOM     17  C   LIG    1       48.462  60.950  40.692  0.00  0.00    +0.105 C 
BRANCH   8   9
ATOM      9  C   LIG    1       50.541  57.986  40.986  0.00  0.00    +0.242 C 
ATOM     10  O   LIG    1       51.636  58.538  40.890  0.00  0.00    -0.273 OA
ATOM     11  N   LIG    1       50.359  56.797  41.577  0.00  0.00    -0.268 N 
ATOM     12  C   LIG    1       49.021  56.194  41.647  0.00  0.00    +0.106 C 
ATOM     13  C   LIG    1       49.042  54.847  42.378  0.00  0.00    +0.081 C 
ATOM     14  S   LIG    1       50.708  54.378  42.362  0.00  0.00    -0.117 S 
ATOM     15  C   LIG    1       51.425  55.989  42.184  0.00  0.00    +0.152 C 
ENDBRANCH   8   9
ENDBRANCH   5   6
TORSDOF 4
ENDMDL
MODEL 5
REMARK VINA RESULT:    -7.481      6.434     10.179
REMARK INTER + INTRA:         -10.001
REMARK INTER:                  -9.453
REMARK INTRA:                  -0.548
REMARK UNBOUND:                -0.771
REMARK  Name = ligand_1
REMARK                            x       y       z     vdW  Elec       q    Type
REMARK                         _______ _______ _______ _____ _____    ______ ____
ROOT
ATOM      2  N   LIG    1       53.555  57.922  38.741  0.00  0.00    -0.305 N 
ATOM      3  C   LIG    1       54.497  59.005  38.475  0.00  0.00    +0.108 C 
ATOM      4  C   LIG    1       54.074  59.732  37.194  0.00  0.00    +0.094 C 
ATOM      5  N   LIG    1       52.662  60.136  37.286  0.00  0.00    -0.270 NA
ATOM     18  C   LIG    1       51.725  59.056  37.568  0.00  0.00    +0.094 C 
ATOM     19  C   LIG    1       52.149  58.338  38.848  0.00  0.00    +0.108 C 
ENDROOT
BRANCH   2   1
ATOM      1  C   LIG    1       53.999  56.905  39.657  0.00  0.00    +0.051 A 
ATOM     20  C   LIG    1       54.832  55.834  39.259  0.00  0.00    +0.031 A 
ATOM     21  C   LIG    1       55.176  55.628  37.926  0.00  0.00    +0.003 A 
ATOM     22  C   LIG    1       55.994  54.563  37.560  0.00  0.00    +0.000 A 
ATOM     23  C   LIG    1       56.483  53.675  38.519  0.00  0.00    +0.002 A 
ATOM     24  C   LIG    1       56.151  53.867  39.857  0.00  0.00    +0.019 A 
ATOM     25  C   LIG    1       55.336  54.935  40.218  0.00  0.00    +0.082 A 
ATOM     26  N   LIG    1       55.025  55.079  41.517  0.00  0.00    -0.241 NA
ATOM     27  C   LIG    1       54.228  56.082  41.940  0.00  0.00    +0.154 A 
ATOM     32  C   LIG    1       53.714  57.018  41.029  0.00  0.00    +0.038 A 
BRANCH  27  28
ATOM     28  C   LIG    1       54.001  56.116  43.427  0.00  0.00    +0.435 C 
ATOM     29  F   LIG    1       55.032  56.703  44.000  0.00  0.00    -0.164 F 
ATOM     30  F   LIG    1       53.768  54.938  43.975  0.00  0.00    -0.164 F 
ATOM     31  F   LIG    1       52.949  56.881  43.626  0.00  0.00    -0.164 F 
ENDBRANCH  27  28
ENDBRANCH   2   1
BRANCH   5   6
ATOM      6  C   LIG    1       52.241  60.813  36.028  0.00  0.00    +0.077 C 
ATOM      7  C   LIG    1       51.546  62.159  36.281  0.00  0.00    +0.044 C 
ATOM      8  C   LIG    1       51.790  62.967  35.006  0.00  0.00    +0.150 C 
ATOM     16  N   LIG    1       53.026  62.414  34.462  0.00  0.00    -0.209 NA
ATOM     17  C   LIG    1       53.447  61.206  35.160  0.00  0.00    +0.105 C 
BRANCH   8   9
ATOM      9  C   LIG    1       51.843  64.465  35.242  0.00  0.00    +0.242 C 
ATOM     10  O   LIG    1       52.098  64.892  36.367  0.00  0.00    -0.273 OA
ATOM     11  N   LIG    1       51.651  65.253  34.175  0.00  0.00    -0.268 N 
ATOM     12  C   LIG    1       51.342  64.672  32.862  0.00  0.00    +0.106 C 
ATOM     13  C   LIG    1       51.179  65.751  31.786  0.00  0.00    +0.081 C 
ATOM     14  S   LIG    1       50.931  67.211  32.680  0.00  0.00    -0.117 S 
ATOM     15  C   LIG    1       51.713  66.720  34.194  0.00  0.00    +0.152 C 
ENDBRANCH   8   9
ENDBRANCH   5   6
TORSDOF 4
ENDMDL
