MODEL 1
REMARK VINA RESULT:    -8.354      0.000      0.000
REMARK INTER + INTRA:         -11.084
REMARK INTER:                 -10.308
REMARK INTRA:                  -0.777
REMARK UNBOUND:                -0.777
REMARK  Name = ligand_1
REMARK                            x       y       z     vdW  Elec       q    Type
REMARK                         _______ _______ _______ _____ _____    ______ ____
ROOT
ATOM      2  N   LIG    1       50.191  61.740  38.363  0.00  0.00    -0.305 N 
ATOM      3  C   LIG    1       50.190  63.149  38.746  0.00  0.00    +0.108 C 
ATOM      4  C   LIG    1       51.413  63.834  38.128  0.00  0.00    +0.094 C 
ATOM      5  N   LIG    1       51.458  63.577  36.681  0.00  0.00    -0.270 NA
ATOM     18  C   LIG    1       51.441  62.171  36.300  0.00  0.00    +0.094 C 
ATOM     19  C   LIG    1       50.218  61.493  36.914  0.00  0.00    +0.108 C 
ENDROOT
BRANCH   2   1
ATOM      1  C   LIG    1       49.360  60.867  39.150  0.00  0.00    +0.051 A 
ATOM     20  C   LIG    1       49.887  59.801  39.915  0.00  0.00    +0.031 A 
ATOM     21  C   LIG    1       51.235  59.453  39.856  0.00  0.00    +0.003 A 
ATOM     22  C   LIG    1       51.727  58.395  40.616  0.00  0.00    +0.000 A 
ATOM     23  C   LIG    1       50.883  57.658  41.448  0.00  0.00    +0.002 A 
ATOM     24  C   LIG    1       49.535  57.994  41.520  0.00  0.00    +0.019 A 
ATOM     25  C   LIG    1       49.048  59.053  40.761  0.00  0.00    +0.082 A 
ATOM     26  N   LIG    1       47.737  59.338  40.846  0.00  0.00    -0.241 NA
ATOM     27  C   LIG    1       47.190  60.342  40.129  0.00  0.00    +0.154 A 
ATOM     32  C   LIG    1       47.986  61.132  39.284  0.00  0.00    +0.038 A 
BRANCH  27  28
ATOM     28  C   LIG    1       45.717  60.544  40.359  0.00  0.00    +0.435 C 
ATOM     29  F   LIG    1       45.324  59.734  41.321  0.00  0.00    -0.164 F 
ATOM     30  F   LIG    1       44.967  60.395  39.284  0.00  0.00    -0.164 F 
ATOM     31  F   LIG    1       45.575  61.777  40.798  0.00  0.00    -0.164 F 
ENDBRANCH  27  28
ENDBRANCH   2   1
BRANCH   5   6
ATOM      6  C   LIG    1       52.665  64.216  36.085  0.00  0.00    +0.077 C 
ATOM      7  C   LIG    1       53.926  64.017  36.940  0.00  0.00    +0.044 C 
ATOM      8  C   LIG    1       55.085  64.109  35.947  0.00  0.00    +0.150 C 
ATOM     16  N   LIG    1       54.501  63.697  34.675  0.00  0.00    -0.209 NA
ATOM     17  C   LIG    1       53.051  63.570  34.745  0.00  0.00    +0.105 C 
BRANCH   8   9
ATOM      9  C   LIG    1       56.295  63.291  36.356  0.00  0.00    +0.242 C 
ATOM     10  O   LIG    1       56.458  62.170  35.877  0.00  0.00    -0.273 OA
ATOM     11  N   LIG    1       57.161  63.870  37.199  0.00  0.00    -0.268 N 
ATOM     12  C   LIG    1       56.896  65.211  37.739  0.00  0.00    +0.106 C 
ATOM     13  C   LIG    1       58.021  65.684  38.665  0.00  0.00    +0.081 C 
ATOM     14  S   LIG    1       58.874  64.236  39.076  0.00  0.00    -0.117 S 
ATOM     15  C   LIG    1       58.411  63.259  37.671  0.00  0.00    +0.152 C 
ENDBRANCH   8   9
ENDBRANCH   5   6
TORSDOF 4
ENDMDL
MODEL 2
REMARK VINA RESULT:    -8.096      5.461      9.908
REMARK INTER + INTRA:         -10.765
REMARK INTER:                  -9.931
REMARK INTRA:                  -0.835
REMARK UNBOUND:                -0.777
REMARK  Name = ligand_1
REMARK                            x       y       z     vdW  Elec       q    Type
REMARK                         _______ _______ _______ _____ _____    ______ ____
ROOT
ATOM      2  N   LIG    1       51.224  62.641  37.410  0.00  0.00    -0.305 N 
ATOM      3  C   LIG    1       50.870  63.371  38.623  0.00  0.00    +0.108 C 
ATOM      4  C   LIG    1       49.683  62.674  39.297  0.00  0.00    +0.094 C 
ATOM      5  N   LIG    1       49.978  61.246  39.487  0.00  0.00    -0.270 NA
ATOM     18  C   LIG    1       50.348  60.523  38.277  0.00  0.00    +0.094 C 
ATOM     19  C   LIG    1       51.534  61.218  37.612  0.00  0.00    +0.108 C 
ENDROOT
BRANCH   2   1
ATOM      1  C   LIG    1       52.037  63.349  36.457  0.00  0.00    +0.051 A 
ATOM     20  C   LIG    1       51.491  64.005  35.330  0.00  0.00    +0.031 A 
ATOM     21  C   LIG    1       50.141  63.903  35.004  0.00  0.00    +0.003 A 
ATOM     22  C   LIG    1       49.629  64.555  33.886  0.00  0.00    +0.000 A 
ATOM     23  C   LIG    1       50.457  65.321  33.064  0.00  0.00    +0.002 A 
ATOM     24  C   LIG    1       51.808  65.436  33.375  0.00  0.00    +0.019 A 
ATOM     25  C   LIG    1       52.314  64.784  34.495  0.00  0.00    +0.082 A 
ATOM     26  N   LIG    1       53.627  64.906  34.755  0.00  0.00    -0.241 NA
ATOM     27  C   LIG    1       54.192  64.292  35.816  0.00  0.00    +0.154 A 
ATOM     32  C   LIG    1       53.413  63.519  36.691  0.00  0.00    +0.038 A 
BRANCH  27  28
ATOM     28  C   LIG    1       55.665  64.552  35.978  0.00  0.00    +0.435 C 
ATOM     29  F   LIG    1       56.333  63.559  35.428  0.00  0.00    -0.164 F 
ATOM     30  F   LIG    1       56.055  64.746  37.224  0.00  0.00    -0.164 F 
ATOM     31  F   LIG    1       55.930  65.639  35.286  0.00  0.00    -0.164 F 
ENDBRANCH  27  28
ENDBRANCH   2   1
BRANCH   5   6
ATOM      6  C   LIG    1       48.812  60.562  40.112  0.00  0.00    +0.077 C 
ATOM      7  C   LIG    1       48.532  59.182  39.496  0.00  0.00    +0.044 C 
ATOM      8  C   LIG    1       47.829  58.399  40.605  0.00  0.00    +0.150 C 
ATOM     16  N   LIG    1       48.309  59.013  41.838  0.00  0.00    -0.209 NA
ATOM     17  C   LIG    1       49.068  60.232  41.591  0.00  0.00    +0.105 C 
BRANCH   8   9
ATOM      9  C   LIG    1       48.072  56.903  40.533  0.00  0.00    +0.242 C 
ATOM     10  O   LIG    1       49.110  56.435  41.001  0.00  0.00    -0.273 OA
ATOM     11  N   LIG    1       47.099  56.156  39.994  0.00  0.00    -0.268 N 
ATOM     12  C   LIG    1       45.889  56.786  39.447  0.00  0.00    +0.106 C 
ATOM     13  C   LIG    1       44.905  55.747  38.899  0.00  0.00    +0.081 C 
ATOM     14  S   LIG    1       45.860  54.317  38.701  0.00  0.00    -0.117 S 
ATOM     15  C   LIG    1       47.129  54.692  39.881  0.00  0.00    +0.152 C 
ENDBRANCH   8   9
ENDBRANCH   5   6
TORSDOF 4
ENDMDL
MODEL 3
REMARK VINA RESULT:    -7.699      5.003      9.355
REMARK INTER + INTRA:         -10.276
REMARK INTER:                  -9.929
REMARK INTRA:                  -0.346
REMARK UNBOUND:                -0.777
REMARK  Name = ligand_1
REMARK                            x       y       z     vdW  Elec       q    Type
REMARK                         _______ _______ _______ _____ _____    ______ ____
ROOT
ATOM      2  N   LIG    1       51.216  62.431  37.236  0.00  0.00    -0.305 N 
ATOM      3  C   LIG    1       50.418  61.412  36.561  0.00  0.00    +0.108 C 
ATOM      4  C   LIG    1       49.910  60.406  37.601  0.00  0.00    +0.094 C 
ATOM      5  N   LIG    1       49.229  61.114  38.696  0.00  0.00    -0.270 NA
ATOM     18  C   LIG    1       50.022  62.142  39.358  0.00  0.00    +0.094 C 
ATOM     19  C   LIG    1       50.522  63.144  38.319  0.00  0.00    +0.108 C 
ENDROOT
BRANCH   2   1
ATOM      1  C   LIG    1       52.082  63.217  36.398  0.00  0.00    +0.051 A 
ATOM     20  C   LIG    1       51.599  63.981  35.311  0.00  0.00    +0.031 A 
ATOM     21  C   LIG    1       50.268  63.924  34.908  0.00  0.00    +0.003 A 
ATOM     22  C   LIG    1       49.819  64.684  33.831  0.00  0.00    +0.000 A 
ATOM     23  C   LIG    1       50.693  65.515  33.129  0.00  0.00    +0.002 A 
ATOM     24  C   LIG    1       52.027  65.586  33.520  0.00  0.00    +0.019 A 
ATOM     25  C   LIG    1       52.470  64.828  34.598  0.00  0.00    +0.082 A 
ATOM     26  N   LIG    1       53.768  64.911  34.936  0.00  0.00    -0.241 NA
ATOM     27  C   LIG    1       54.272  64.194  35.962  0.00  0.00    +0.154 A 
ATOM     32  C   LIG    1       53.445  63.350  36.719  0.00  0.00    +0.038 A 
BRANCH  27  28
ATOM     28  C   LIG    1       55.736  64.424  36.225  0.00  0.00    +0.435 C 
ATOM     29  F   LIG    1       56.423  63.442  35.677  0.00  0.00    -0.164 F 
ATOM     30  F   LIG    1       56.051  64.562  37.499  0.00  0.00    -0.164 F 
ATOM     31  F   LIG    1       56.059  65.533  35.595  0.00  0.00    -0.164 F 
ENDBRANCH  27  28
ENDBRANCH   2   1
BRANCH   5   6
ATOM      6  C   LIG    1       48.765  60.139  39.723  0.00  0.00    +0.077 C 
ATOM      7  C   LIG    1       49.528  58.807  39.666  0.00  0.00    +0.044 C 
ATOM      8  C   LIG    1       49.431  58.244  41.084  0.00  0.00    +0.150 C 
ATOM     16  N   LIG    1       49.272  59.424  41.927  0.00  0.00    -0.209 NA
ATOM     17  C   LIG    1       49.045  60.635  41.150  0.00  0.00    +0.105 C 
BRANCH   8   9
ATOM      9  C   LIG    1       50.613  57.374  41.469  0.00  0.00    +0.242 C 
ATOM     10  O   LIG    1       51.756  57.809  41.333  0.00  0.00    -0.273 OA
ATOM     11  N   LIG    1       50.334  56.171  41.991  0.00  0.00    -0.268 N 
ATOM     12  C   LIG    1       48.944  55.714  42.115  0.00  0.00    +0.106 C 
ATOM     13  C   LIG    1       48.857  54.323  42.752  0.00  0.00    +0.081 C 
ATOM     14  S   LIG    1       50.454  53.677  42.587  0.00  0.00    -0.117 S 
ATOM     15  C   LIG    1       51.338  55.210  42.467  0.00  0.00    +0.152 C 
ENDBRANCH   8   9
ENDBRANCH   5   6
TORSDOF 4
ENDMDL
MODEL 4
REMARK VINA RESULT:    -7.627      4.650      8.866
REMARK INTER + INTRA:         -10.188
REMARK INTER:                  -9.548
REMARK INTRA:                  -0.640
REMARK UNBOUND:                -0.777
REMARK  Name = ligand_1
REMARK                            x       y       z     vdW  Elec       q    Type
REMARK                         _______ _______ _______ _____ _____    ______ ____
ROOT
ATOM      2  N   LIG    1       50.677  63.032  36.572  0.00  0.00    -0.305 N 
ATOM      3  C   LIG    1       49.356  62.627  36.101  0.00  0.00    +0.108 C 
ATOM      4  C   LIG    1       48.875  61.433  36.931  0.00  0.00    +0.094 C 
ATOM      5  N   LIG    1       48.961  61.747  38.366  0.00  0.00    -0.270 NA
ATOM     18  C   LIG    1       50.276  62.167  38.830  0.00  0.00    +0.094 C 
ATOM     19  C   LIG    1       50.750  63.361  38.004  0.00  0.00    +0.108 C 
ENDROOT
BRANCH   2   1
ATOM      1  C   LIG    1       51.443  63.863  35.680  0.00  0.00    +0.051 A 
ATOM     20  C   LIG    1       52.855  63.814  35.621  0.00  0.00    +0.031 A 
ATOM     21  C   LIG    1       53.601  63.046  36.511  0.00  0.00    +0.003 A 
ATOM     22  C   LIG    1       54.990  63.020  36.434  0.00  0.00    +0.000 A 
ATOM     23  C   LIG    1       55.667  63.766  35.468  0.00  0.00    +0.002 A 
ATOM     24  C   LIG    1       54.938  64.537  34.569  0.00  0.00    +0.019 A 
ATOM     25  C   LIG    1       53.549  64.558  34.648  0.00  0.00    +0.082 A 
ATOM     26  N   LIG    1       52.880  65.327  33.772  0.00  0.00    -0.241 NA
ATOM     27  C   LIG    1       51.533  65.408  33.797  0.00  0.00    +0.154 A 
ATOM     32  C   LIG    1       50.790  64.672  34.734  0.00  0.00    +0.038 A 
BRANCH  27  28
ATOM     28  C   LIG    1       50.940  66.291  32.733  0.00  0.00    +0.435 C 
ATOM     29  F   LIG    1       51.094  67.549  33.093  0.00  0.00    -0.164 F 
ATOM     30  F   LIG    1       49.676  66.037  32.449  0.00  0.00    -0.164 F 
ATOM     31  F   LIG    1       51.657  66.099  31.647  0.00  0.00    -0.164 F 
ENDBRANCH  27  28
ENDBRANCH   2   1
BRANCH   5   6
ATOM      6  C   LIG    1       48.524  60.574  39.173  0.00  0.00    +0.077 C 
ATOM      7  C   LIG    1       49.540  59.422  39.145  0.00  0.00    +0.044 C 
ATOM      8  C   LIG    1       49.301  58.663  40.450  0.00  0.00    +0.150 C 
ATOM     16  N   LIG    1       48.753  59.668  41.354  0.00  0.00    -0.209 NA
ATOM     17  C   LIG    1       48.431  60.913  40.670  0.00  0.00    +0.105 C 
BRANCH   8   9
ATOM      9  C   LIG    1       50.544  57.975  40.983  0.00  0.00    +0.242 C 
ATOM     10  O   LIG    1       51.634  58.537  40.890  0.00  0.00    -0.273 OA
ATOM     11  N   LIG    1       50.370  56.787  41.579  0.00  0.00    -0.268 N 
ATOM     12  C   LIG    1       49.037  56.172  41.645  0.00  0.00    +0.106 C 
ATOM     13  C   LIG    1       49.067  54.829  42.384  0.00  0.00    +0.081 C 
ATOM     14  S   LIG    1       50.737  54.376  42.381  0.00  0.00    -0.117 S 
ATOM     15  C   LIG    1       51.440  55.994  42.198  0.00  0.00    +0.152 C 
ENDBRANCH   8   9
ENDBRANCH   5   6
TORSDOF 4
ENDMDL
MODEL 5
REMARK VINA RESULT:    -7.243      5.503      7.882
REMARK INTER + INTRA:          -9.714
REMARK INTER:                  -9.039
REMARK INTRA:                  -0.675
REMARK UNBOUND:                -0.777
REMARK  Name = ligand_1
REMARK                            x       y       z     vdW  Elec       q    Type
REMARK                         _______ _______ _______ _____ _____    ______ ____
ROOT
ATOM      2  N   LIG    1       52.334  62.420  35.322  0.00  0.00    -0.305 N 
ATOM      3  C   LIG    1       53.535  63.144  35.725  0.00  0.00    +0.108 C 
ATOM      4  C   LIG    1       54.273  62.332  36.795  0.00  0.00    +0.094 C 
ATOM      5  N   LIG    1       54.498  60.958  36.319  0.00  0.00    -0.270 NA
ATOM     18  C   LIG    1       53.300  60.242  35.901  0.00  0.00    +0.094 C 
ATOM     19  C   LIG    1       52.571  61.053  34.832  0.00  0.00    +0.108 C 
ENDROOT
BRANCH   2   1
ATOM      1  C   LIG    1       51.331  63.187  34.633  0.00  0.00    +0.051 A 
ATOM     20  C   LIG    1       49.948  62.918  34.760  0.00  0.00    +0.031 A 
ATOM     21  C   LIG    1       49.477  61.815  35.467  0.00  0.00    +0.003 A 
ATOM     22  C   LIG    1       48.110  61.571  35.573  0.00  0.00    +0.000 A 
ATOM     23  C   LIG    1       47.183  62.423  34.971  0.00  0.00    +0.002 A 
ATOM     24  C   LIG    1       47.636  63.531  34.263  0.00  0.00    +0.019 A 
ATOM     25  C   LIG    1       49.002  63.773  34.162  0.00  0.00    +0.082 A 
ATOM     26  N   LIG    1       49.402  64.845  33.458  0.00  0.00    -0.241 NA
ATOM     27  C   LIG    1       50.711  65.135  33.304  0.00  0.00    +0.154 A 
ATOM     32  C   LIG    1       51.695  64.327  33.896  0.00  0.00    +0.038 A 
BRANCH  27  28
ATOM     28  C   LIG    1       50.987  66.383  32.511  0.00  0.00    +0.435 C 
ATOM     29  F   LIG    1       51.779  66.077  31.503  0.00  0.00    -0.164 F 
ATOM     30  F   LIG    1       51.487  67.382  33.213  0.00  0.00    -0.164 F 
ATOM     31  F   LIG    1       49.834  66.766  32.006  0.00  0.00    -0.164 F 
ENDBRANCH  27  28
ENDBRANCH   2   1
BRANCH   5   6
ATOM      6  C   LIG    1       55.186  60.159  37.371  0.00  0.00    +0.077 C 
ATOM      7  C   LIG    1       54.224  59.252  38.153  0.00  0.00    +0.044 C 
ATOM      8  C   LIG    1       55.097  58.103  38.656  0.00  0.00    +0.150 C 
ATOM     16  N   LIG    1       56.188  58.032  37.690  0.00  0.00    -0.209 NA
ATOM     17  C   LIG    1       56.187  59.160  36.768  0.00  0.00    +0.105 C 
BRANCH   8   9
ATOM      9  C   LIG    1       54.341  56.797  38.819  0.00  0.00    +0.242 C 
ATOM     10  O   LIG    1       53.855  56.251  37.830  0.00  0.00    -0.273 OA
ATOM     11  N   LIG    1       54.286  56.280  40.054  0.00  0.00    -0.268 N 
ATOM     12  C   LIG    1       54.882  56.994  41.191  0.00  0.00    +0.106 C 
ATOM     13  C   LIG    1       54.719  56.215  42.501  0.00  0.00    +0.081 C 
ATOM     14  S   LIG    1       53.463  55.073  42.165  0.00  0.00    -0.117 S 
ATOM     15  C   LIG    1       53.644  55.006  40.403  0.00  0.00    +0.152 C 
ENDBRANCH   8   9
ENDBRANCH   5   6
TORSDOF 4
ENDMDL
MODEL 6
REMARK VINA RESULT:    -6.954      8.676     11.553
REMARK INTER + INTRA:          -9.357
REMARK INTER:                  -8.512
REMARK INTRA:                  -0.845
REMARK UNBOUND:                -0.777
REMARK  Name = ligand_1
REMARK                            x       y       z     vdW  Elec       q    Type
REMARK                         _______ _______ _______ _____ _____    ______ ____
ROOT
ATOM      2  N   LIG    1       56.574  55.966  35.741  0.00  0.00    -0.305 N 
ATOM      3  C   LIG    1       56.221  57.295  36.230  0.00  0.00    +0.108 C 
ATOM      4  C   LIG    1       55.554  57.161  37.604  0.00  0.00    +0.094 C 
ATOM      5  N   LIG    1       56.407  56.366  38.502  0.00  0.00    -0.270 NA
ATOM     18  C   LIG    1       56.772  55.047  38.004  0.00  0.00    +0.094 C 
ATOM     19  C   LIG    1       57.439  55.186  36.638  0.00  0.00    +0.108 C 
ENDROOT
BRANCH   2   1
ATOM      1  C   LIG    1       56.843  55.859  34.331  0.00  0.00    +0.051 A 
ATOM     20  C   LIG    1       56.004  55.137  33.450  0.00  0.00    +0.031 A 
ATOM     21  C   LIG    1       54.930  54.381  33.913  0.00  0.00    +0.003 A 
ATOM     22  C   LIG    1       54.123  53.677  33.025  0.00  0.00    +0.000 A 
ATOM     23  C   LIG    1       54.375  53.707  31.652  0.00  0.00    +0.002 A 
ATOM     24  C   LIG    1       55.442  54.458  31.172  0.00  0.00    +0.019 A 
ATOM     25  C   LIG    1       56.244  55.163  32.063  0.00  0.00    +0.082 A 
ATOM     26  N   LIG    1       57.275  55.866  31.563  0.00  0.00    -0.241 NA
ATOM     27  C   LIG    1       58.104  56.563  32.368  0.00  0.00    +0.154 A 
ATOM     32  C   LIG    1       57.899  56.587  33.757  0.00  0.00    +0.038 A 
BRANCH  27  28
ATOM     28  C   LIG    1       59.190  57.314  31.647  0.00  0.00    +0.435 C 
ATOM     29  F   LIG    1       60.350  56.756  31.929  0.00  0.00    -0.164 F 
ATOM     30  F   LIG    1       59.220  58.610  31.896  0.00  0.00    -0.164 F 
ATOM     31  F   LIG    1       58.971  57.143  30.361  0.00  0.00    -0.164 F 
ENDBRANCH  27  28
ENDBRANCH   2   1
BRANCH   5   6
ATOM      6  C   LIG    1       55.744  56.208  39.827  0.00  0.00    +0.077 C 
ATOM      7  C   LIG    1       54.241  56.522  39.781  0.00  0.00    +0.044 C 
ATOM      8  C   LIG    1       53.641  55.712  40.931  0.00  0.00    +0.150 C 
ATOM     16  N   LIG    1       54.560  54.592  41.097  0.00  0.00    -0.209 NA
ATOM     17  C   LIG    1       55.776  54.749  40.311  0.00  0.00    +0.105 C 
BRANCH   8   9
ATOM      9  C   LIG    1       52.204  55.291  40.686  0.00  0.00    +0.242 C 
ATOM     10  O   LIG    1       51.971  54.195  40.179  0.00  0.00    -0.273 OA
ATOM     11  N   LIG    1       51.247  56.140  41.088  0.00  0.00    -0.268 N 
ATOM     12  C   LIG    1       51.600  57.438  41.678  0.00  0.00    +0.106 C 
ATOM     13  C   LIG    1       50.355  58.237  42.081  0.00  0.00    +0.081 C 
ATOM     14  S   LIG    1       49.064  57.485  41.208  0.00  0.00    -0.117 S 
ATOM     15  C   LIG    1       49.804  55.889  40.982  0.00  0.00    +0.152 C 
ENDBRANCH   8   9
ENDBRANCH   5   6
TORSDOF 4
ENDMDL
MODEL 7
REMARK VINA RESULT:    -6.529      4.787      8.539
REMARK INTER + INTRA:          -8.832
REMARK INTER:                  -7.893
REMARK INTRA:                  -0.939
REMARK UNBOUND:                -0.777
REMARK  Name = ligand_1
REMARK                            x       y       z     vdW  Elec       q    Type
REMARK                         _______ _______ _______ _____ _____    ______ ____
ROOT
ATOM      2  N   LIG    1       52.272  60.653  36.148  0.00  0.00    -0.305 N 
ATOM      3  C   LIG    1       52.504  59.490  35.297  0.00  0.00    +0.108 C 
ATOM      4  C   LIG    1       52.717  58.258  36.184  0.00  0.00    +0.094 C 
ATOM      5  N   LIG    1       51.606  58.126  37.140  0.00  0.00    -0.270 NA
ATOM     18  C   LIG    1       51.366  59.294  37.976  0.00  0.00    +0.094 C 
ATOM     19  C   LIG    1       51.149  60.518  37.089  0.00  0.00    +0.108 C 
ENDROOT
BRANCH   2   1
ATOM      1  C   LIG    1       52.439  61.939  35.525  0.00  0.00    +0.051 A 
ATOM     20  C   LIG    1       53.625  62.700  35.658  0.00  0.00    +0.031 A 
ATOM     21  C   LIG    1       54.659  62.305  36.502  0.00  0.00    +0.003 A 
ATOM     22  C   LIG    1       55.813  63.074  36.618  0.00  0.00    +0.000 A 
ATOM     23  C   LIG    1       55.958  64.260  35.896  0.00  0.00    +0.002 A 
ATOM     24  C   LIG    1       54.936  64.668  35.045  0.00  0.00    +0.019 A 
ATOM     25  C   LIG    1       53.785  63.894  34.931  0.00  0.00    +0.082 A 
ATOM     26  N   LIG    1       52.813  64.329  34.111  0.00  0.00    -0.241 NA
ATOM     27  C   LIG    1       51.663  63.639  33.959  0.00  0.00    +0.154 A 
ATOM     32  C   LIG    1       51.459  62.431  34.646  0.00  0.00    +0.038 A 
BRANCH  27  28
ATOM     28  C   LIG    1       50.692  64.249  32.986  0.00  0.00    +0.435 C 
ATOM     29  F   LIG    1       50.135  65.303  33.548  0.00  0.00    -0.164 F 
ATOM     30  F   LIG    1       49.771  63.418  32.534  0.00  0.00    -0.164 F 
ATOM     31  F   LIG    1       51.404  64.675  31.965  0.00  0.00    -0.164 F 
ENDBRANCH  27  28
ENDBRANCH   2   1
BRANCH   5   6
ATOM      6  C   LIG    1       51.830  56.948  38.023  0.00  0.00    +0.077 C 
ATOM      7  C   LIG    1       52.688  57.281  39.253  0.00  0.00    +0.044 C 
ATOM      8  C   LIG    1       52.274  56.252  40.305  0.00  0.00    +0.150 C 
ATOM     16  N   LIG    1       50.907  55.897  39.939  0.00  0.00    -0.209 NA
ATOM     17  C   LIG    1       50.519  56.442  38.645  0.00  0.00    +0.105 C 
BRANCH   8   9
ATOM      9  C   LIG    1       52.413  56.756  41.729  0.00  0.00    +0.242 C 
ATOM     10  O   LIG    1       51.727  57.707  42.105  0.00  0.00    -0.273 OA
ATOM     11  N   LIG    1       53.261  56.092  42.526  0.00  0.00    -0.268 N 
ATOM     12  C   LIG    1       54.054  54.971  42.005  0.00  0.00    +0.106 C 
ATOM     13  C   LIG    1       54.940  54.349  43.090  0.00  0.00    +0.081 C 
ATOM     14  S   LIG    1       55.002  55.551  44.333  0.00  0.00    -0.117 S 
ATOM     15  C   LIG    1       53.494  56.398  43.944  0.00  0.00    +0.152 C 
ENDBRANCH   8   9
ENDBRANCH   5   6
TORSDOF 4
ENDMDL
MODEL 8
REMARK VINA RESULT:    -6.329      5.614      7.365
REMARK INTER + INTRA:          -8.586
REMARK INTER:                  -9.579
REMARK INTRA:                   0.993
REMARK UNBOUND:                -0.777
REMARK  Name = ligand_1
REMARK                            x       y       z     vdW  Elec       q    Type
REMARK                         _______ _______ _______ _____ _____    ______ ____
ROOT
ATOM      2  N   LIG    1       54.338  60.302  37.049  0.00  0.00    -0.305 N 
ATOM      3  C   LIG    1       53.451  60.271  35.891  0.00  0.00    +0.108 C 
ATOM      4  C   LIG    1       53.071  61.708  35.515  0.00  0.00    +0.094 C 
ATOM      5  N   LIG    1       54.284  62.525  35.356  0.00  0.00    -0.270 NA
ATOM     18  C   LIG    1       55.177  62.540  36.508  0.00  0.00    +0.094 C 
ATOM     19  C   LIG    1       55.556  61.108  36.875  0.00  0.00    +0.108 C 
ENDROOT
BRANCH   2   1
ATOM      1  C   LIG    1       54.481  59.066  37.772  0.00  0.00    +0.051 A 
ATOM     20  C   LIG    1       53.513  58.609  38.696  0.00  0.00    +0.031 A 
ATOM     21  C   LIG    1       52.417  59.389  39.056  0.00  0.00    +0.003 A 
ATOM     22  C   LIG    1       51.481  58.918  39.972  0.00  0.00    +0.000 A 
ATOM     23  C   LIG    1       51.621  57.657  40.554  0.00  0.00    +0.002 A 
ATOM     24  C   LIG    1       52.709  56.864  40.204  0.00  0.00    +0.019 A 
ATOM     25  C   LIG    1       53.641  57.338  39.286  0.00  0.00    +0.082 A 
ATOM     26  N   LIG    1       54.686  56.549  38.985  0.00  0.00    -0.241 NA
ATOM     27  C   LIG    1       55.637  56.947  38.115  0.00  0.00    +0.154 A 
ATOM     32  C   LIG    1       55.548  58.197  37.483  0.00  0.00    +0.038 A 
BRANCH  27  28
ATOM     28  C   LIG    1       56.723  55.935  37.869  0.00  0.00    +0.435 C 
ATOM     29  F   LIG    1       56.449  55.281  36.759  0.00  0.00    -0.164 F 
ATOM     30  F   LIG    1       56.931  55.098  38.868  0.00  0.00    -0.164 F 
ATOM     31  F   LIG    1       57.829  56.618  37.663  0.00  0.00    -0.164 F 
ENDBRANCH  27  28
ENDBRANCH   2   1
BRANCH   5   6
ATOM      6  C   LIG    1       53.913  63.929  35.024  0.00  0.00    +0.077 C 
ATOM      7  C   LIG    1       53.309  64.068  33.618  0.00  0.00    +0.044 C 
ATOM      8  C   LIG    1       52.425  65.313  33.697  0.00  0.00    +0.150 C 
ATOM     16  N   LIG    1       52.051  65.397  35.105  0.00  0.00    -0.209 NA
ATOM     17  C   LIG    1       52.791  64.455  35.934  0.00  0.00    +0.105 C 
BRANCH   8   9
ATOM      9  C   LIG    1       51.239  65.271  32.753  0.00  0.00    +0.242 C 
ATOM     10  O   LIG    1       51.318  65.822  31.655  0.00  0.00    -0.273 OA
ATOM     11  N   LIG    1       50.165  64.580  33.160  0.00  0.00    -0.268 N 
ATOM     12  C   LIG    1       50.137  63.955  34.489  0.00  0.00    +0.106 C 
ATOM     13  C   LIG    1       48.825  63.204  34.737  0.00  0.00    +0.081 C 
ATOM     14  S   LIG    1       47.738  63.837  33.549  0.00  0.00    -0.117 S 
ATOM     15  C   LIG    1       48.943  64.385  32.368  0.00  0.00    +0.152 C 
ENDBRANCH   8   9
ENDBRANCH   5   6
TORSDOF 4
ENDMDL
MODEL 9
REMARK VINA RESULT:    -6.148      4.644      8.572
REMARK INTER + INTRA:          -8.363
REMARK INTER:                  -9.695
REMARK INTRA:                   1.332
REMARK UNBOUND:                -0.777
REMARK  Name = ligand_1
REMARK                            x       y       z     vdW  Elec       q    Type
REMARK                         _______ _______ _______ _____ _____    ______ ____
ROOT
ATOM      2  N   LIG    1       50.859  62.314  37.296  0.00  0.00    -0.305 N 
ATOM      3  C   LIG    1       49.987  61.328  36.665  0.00  0.00    +0.108 C 
ATOM      4  C   LIG    1       49.520  60.324  37.725  0.00  0.00    +0.094 C 
ATOM      5  N   LIG    1       48.936  61.036  38.872  0.00  0.00    -0.270 NA
ATOM     18  C   LIG    1       49.802  62.032  39.490  0.00  0.00    +0.094 C 
ATOM     19  C   LIG    1       50.260  63.033  38.431  0.00  0.00    +0.108 C 
ENDROOT
BRANCH   2   1
ATOM      1  C   LIG    1       51.690  63.086  36.410  0.00  0.00    +0.051 A 
ATOM     20  C   LIG    1       51.164  63.819  35.321  0.00  0.00    +0.031 A 
ATOM     21  C   LIG    1       49.821  63.742  34.964  0.00  0.00    +0.003 A 
ATOM     22  C   LIG    1       49.330  64.471  33.885  0.00  0.00    +0.000 A 
ATOM     23  C   LIG    1       50.173  65.291  33.134  0.00  0.00    +0.002 A 
ATOM     24  C   LIG    1       51.518  65.383  33.477  0.00  0.00    +0.019 A 
ATOM     25  C   LIG    1       52.003  64.654  34.559  0.00  0.00    +0.082 A 
ATOM     26  N   LIG    1       53.311  64.756  34.851  0.00  0.00    -0.241 NA
ATOM     27  C   LIG    1       53.856  64.069  35.877  0.00  0.00    +0.154 A 
ATOM     32  C   LIG    1       53.061  63.238  36.682  0.00  0.00    +0.038 A 
BRANCH  27  28
ATOM     28  C   LIG    1       55.325  64.316  36.085  0.00  0.00    +0.435 C 
ATOM     29  F   LIG    1       55.539  64.542  37.365  0.00  0.00    -0.164 F 
ATOM     30  F   LIG    1       55.829  65.287  35.347  0.00  0.00    -0.164 F 
ATOM     31  F   LIG    1       55.939  63.195  35.773  0.00  0.00    -0.164 F 
ENDBRANCH  27  28
ENDBRANCH   2   1
BRANCH   5   6
ATOM      6  C   LIG    1       48.513  60.062  39.916  0.00  0.00    +0.077 C 
ATOM      7  C   LIG    1       49.086  58.656  39.685  0.00  0.00    +0.044 C 
ATOM      8  C   LIG    1       49.133  58.023  41.075  0.00  0.00    +0.150 C 
ATOM     16  N   LIG    1       49.252  59.159  41.982  0.00  0.00    -0.209 NA
ATOM     17  C   LIG    1       49.065  60.434  41.302  0.00  0.00    +0.105 C 
BRANCH   8   9
ATOM      9  C   LIG    1       50.241  56.998  41.234  0.00  0.00    +0.242 C 
ATOM     10  O   LIG    1       50.041  55.988  41.908  0.00  0.00    -0.273 OA
ATOM     11  N   LIG    1       51.384  57.236  40.576  0.00  0.00    -0.268 N 
ATOM     12  C   LIG    1       51.556  58.469  39.796  0.00  0.00    +0.106 C 
ATOM     13  C   LIG    1       52.927  58.525  39.116  0.00  0.00    +0.081 C 
ATOM     14  S   LIG    1       53.875  57.352  39.965  0.00  0.00    -0.117 S 
ATOM     15  C   LIG    1       52.549  56.340  40.566  0.00  0.00    +0.152 C 
ENDBRANCH   8   9
ENDBRANCH   5   6
TORSDOF 4
ENDMDL
