MODEL 6
REMARK VINA RESULT:    -6.424      4.691      6.337
REMARK INTER + INTRA:          -8.640
REMARK INTER:                  -8.360
REMARK INTRA:                  -0.279
REMARK UNBOUND:                -0.714
REMARK  Name = ligand_1
REMARK                            x       y       z     vdW  Elec       q    Type
REMARK                         _______ _______ _______ _____ _____    ______ ____
ROOT
ATOM      2  N   LIG    1       50.146  58.776  40.375  0.00  0.00    -0.305 N 
ATOM      3  C   LIG    1       49.548  59.877  41.125  0.00  0.00    +0.108 C 
ATOM      4  C   LIG    1       49.437  61.102  40.211  0.00  0.00    +0.094 C 
ATOM      5  N   LIG    1       48.743  60.741  38.965  0.00  0.00    -0.270 NA
ATOM     18  C   LIG    1       49.332  59.631  38.227  0.00  0.00    +0.094 C 
ATOM     19  C   LIG    1       49.435  58.412  39.140  0.00  0.00    +0.108 C 
ENDROOT
BRANCH   2   1
ATOM      1  C   LIG    1       50.680  57.692  41.155  0.00  0.00    +0.051 A 
ATOM     20  C   LIG    1       49.865  56.667  41.690  0.00  0.00    +0.031 A 
ATOM     21  C   LIG    1       48.476  56.710  41.598  0.00  0.00    +0.003 A 
ATOM     22  C   LIG    1       47.698  55.691  42.138  0.00  0.00    +0.000 A 
ATOM     23  C   LIG    1       48.289  54.606  42.787  0.00  0.00    +0.002 A 
ATOM     24  C   LIG    1       49.675  54.545  42.886  0.00  0.00    +0.019 A 
ATOM     25  C   LIG    1       50.450  55.565  42.343  0.00  0.00    +0.082 A 
ATOM     26  N   LIG    1       51.785  55.479  42.472  0.00  0.00    -0.241 NA
ATOM     27  C   LIG    1       52.599  56.437  41.983  0.00  0.00    +0.154 A 
ATOM     32  C   LIG    1       52.070  57.548  41.306  0.00  0.00    +0.038 A 
BRANCH  27  28
ATOM     28  C   LIG    1       54.067  56.176  42.188  0.00  0.00    +0.435 C 
ATOM     29  F   LIG    1       54.524  57.017  43.093  0.00  0.00    -0.164 F 
ATOM     30  F   LIG    1       54.794  56.230  41.088  0.00  0.00    -0.164 F 
ATOM     31  F   LIG    1       54.162  54.963  42.690  0.00  0.00    -0.164 F 
ENDBRANCH  27  28
ENDBRANCH   2   1
BRANCH   5   6
ATOM      6  C   LIG    1       48.665  61.923  38.063  0.00  0.00    +0.077 C 
ATOM      7  C   LIG    1       49.912  62.080  37.179  0.00  0.00    +0.044 C 
ATOM      8  C   LIG    1       49.420  62.840  35.947  0.00  0.00    +0.150 C 
ATOM     16  N   LIG    1       48.004  62.501  35.859  0.00  0.00    -0.209 NA
ATOM     17  C   LIG    1       47.530  61.784  37.035  0.00  0.00    +0.105 C 
BRANCH   8   9
ATOM      9  C   LIG    1       50.204  62.519  34.688  0.00  0.00    +0.242 C 
ATOM     10  O   LIG    1       49.853  61.576  33.980  0.00  0.00    -0.273 OA
ATOM     11  N   LIG    1       51.229  63.329  34.390  0.00  0.00    -0.268 N 
ATOM     12  C   LIG    1       51.597  64.431  35.289  0.00  0.00    +0.106 C 
ATOM     13  C   LIG    1       52.782  65.237  34.746  0.00  0.00    +0.081 C 
ATOM     14  S   LIG    1       53.499  64.198  33.562  0.00  0.00    -0.117 S 
ATOM     15  C   LIG    1       52.073  63.210  33.194  0.00  0.00    +0.152 C 
ENDBRANCH   8   9
ENDBRANCH   5   6
TORSDOF 4
ENDMDL
