MODEL 9
REMARK VINA RESULT:    -7.116      4.744      8.584
REMARK INTER + INTRA:          -9.474
REMARK INTER:                  -8.502
REMARK INTRA:                  -0.971
REMARK UNBOUND:                -0.693
REMARK  Name = ligand_1
REMARK                            x       y       z     vdW  Elec       q    Type
REMARK                         _______ _______ _______ _____ _____    ______ ____
ROOT
ATOM      2  N   LIG    1       48.644  61.789  36.649  0.00  0.00    -0.305 N 
ATOM      3  C   LIG    1       48.277  60.500  36.070  0.00  0.00    +0.108 C 
ATOM      4  C   LIG    1       48.295  59.435  37.171  0.00  0.00    +0.094 C 
ATOM      5  N   LIG    1       47.469  59.870  38.307  0.00  0.00    -0.270 NA
ATOM     18  C   LIG    1       47.826  61.164  38.874  0.00  0.00    +0.094 C 
ATOM     19  C   LIG    1       47.802  62.223  37.774  0.00  0.00    +0.108 C 
ENDROOT
BRANCH   2   1
ATOM      1  C   LIG    1       49.056  62.809  35.721  0.00  0.00    +0.051 A 
ATOM     20  C   LIG    1       50.319  63.439  35.797  0.00  0.00    +0.031 A 
ATOM     21  C   LIG    1       51.197  63.199  36.851  0.00  0.00    +0.003 A 
ATOM     22  C   LIG    1       52.433  63.837  36.904  0.00  0.00    +0.000 A 
ATOM     23  C   LIG    1       52.819  64.735  35.907  0.00  0.00    +0.002 A 
ATOM     24  C   LIG    1       51.955  64.985  34.846  0.00  0.00    +0.019 A 
ATOM     25  C   LIG    1       50.722  64.343  34.795  0.00  0.00    +0.082 A 
ATOM     26  N   LIG    1       49.908  64.621  33.762  0.00  0.00    -0.241 NA
ATOM     27  C   LIG    1       48.692  64.048  33.654  0.00  0.00    +0.154 A 
ATOM     32  C   LIG    1       48.249  63.125  34.615  0.00  0.00    +0.038 A 
BRANCH  27  28
ATOM     28  C   LIG    1       47.919  64.447  32.426  0.00  0.00    +0.435 C 
ATOM     29  F   LIG    1       47.676  63.368  31.710  0.00  0.00    -0.164 F 
ATOM     30  F   LIG    1       48.498  65.378  31.691  0.00  0.00    -0.164 F 
ATOM     31  F   LIG    1       46.762  64.911  32.848  0.00  0.00    -0.164 F 
ENDBRANCH  27  28
ENDBRANCH   2   1
BRANCH   5   6
ATOM      6  C   LIG    1       47.513  58.849  39.391  0.00  0.00    +0.077 C 
ATOM      7  C   LIG    1       48.857  58.107  39.455  0.00  0.00    +0.044 C 
ATOM      8  C   LIG    1       48.978  57.648  40.908  0.00  0.00    +0.150 C 
ATOM     16  N   LIG    1       48.180  58.614  41.656  0.00  0.00    -0.209 NA
ATOM     17  C   LIG    1       47.408  59.489  40.784  0.00  0.00    +0.105 C 
BRANCH   8   9
ATOM      9  C   LIG    1       50.413  57.540  41.389  0.00  0.00    +0.242 C 
ATOM     10  O   LIG    1       51.142  58.530  41.347  0.00  0.00    -0.273 OA
ATOM     11  N   LIG    1       50.797  56.356  41.885  0.00  0.00    -0.268 N 
ATOM     12  C   LIG    1       49.874  55.213  41.895  0.00  0.00    +0.106 C 
ATOM     13  C   LIG    1       50.513  53.970  42.521  0.00  0.00    +0.081 C 
ATOM     14  S   LIG    1       52.212  54.300  42.488  0.00  0.00    -0.117 S 
ATOM     15  C   LIG    1       52.127  56.070  42.441  0.00  0.00    +0.152 C 
ENDBRANCH   8   9
ENDBRANCH   5   6
TORSDOF 4
ENDMDL
