MODEL 9
REMARK VINA RESULT:    -5.363      5.362      9.220
REMARK INTER + INTRA:          -7.342
REMARK INTER:                  -7.586
REMARK INTRA:                   0.244
REMARK UNBOUND:                -0.724
REMARK  Name = ligand_1
REMARK                            x       y       z     vdW  Elec       q    Type
REMARK                         _______ _______ _______ _____ _____    ______ ____
ROOT
ATOM      2  N   LIG    1       49.279  61.608  36.113  0.00  0.00    -0.305 N 
ATOM      3  C   LIG    1       47.825  61.525  36.216  0.00  0.00    +0.108 C 
ATOM      4  C   LIG    1       47.458  60.693  37.450  0.00  0.00    +0.094 C 
ATOM      5  N   LIG    1       48.143  61.225  38.638  0.00  0.00    -0.270 NA
ATOM     18  C   LIG    1       49.592  61.322  38.527  0.00  0.00    +0.094 C 
ATOM     19  C   LIG    1       49.953  62.156  37.299  0.00  0.00    +0.108 C 
ENDROOT
BRANCH   2   1
ATOM      1  C   LIG    1       49.803  62.004  34.833  0.00  0.00    +0.051 A 
ATOM     20  C   LIG    1       50.678  63.104  34.678  0.00  0.00    +0.031 A 
ATOM     21  C   LIG    1       50.990  63.950  35.739  0.00  0.00    +0.003 A 
ATOM     22  C   LIG    1       51.850  65.029  35.558  0.00  0.00    +0.000 A 
ATOM     23  C   LIG    1       52.415  65.291  34.309  0.00  0.00    +0.002 A 
ATOM     24  C   LIG    1       52.117  64.455  33.238  0.00  0.00    +0.019 A 
ATOM     25  C   LIG    1       51.259  63.376  33.424  0.00  0.00    +0.082 A 
ATOM     26  N   LIG    1       50.982  62.600  32.363  0.00  0.00    -0.241 NA
ATOM     27  C   LIG    1       50.148  61.545  32.464  0.00  0.00    +0.154 A 
ATOM     32  C   LIG    1       49.557  61.217  33.694  0.00  0.00    +0.038 A 
BRANCH  27  28
ATOM     28  C   LIG    1       49.967  60.766  31.190  0.00  0.00    +0.435 C 
ATOM     29  F   LIG    1       51.074  60.853  30.479  0.00  0.00    -0.164 F 
ATOM     30  F   LIG    1       48.920  61.123  30.471  0.00  0.00    -0.164 F 
ATOM     31  F   LIG    1       49.820  59.506  31.540  0.00  0.00    -0.164 F 
ENDBRANCH  27  28
ENDBRANCH   2   1
BRANCH   5   6
ATOM      6  C   LIG    1       47.813  60.396  39.831  0.00  0.00    +0.077 C 
ATOM      7  C   LIG    1       48.259  58.934  39.682  0.00  0.00    +0.044 C 
ATOM      8  C   LIG    1       48.465  58.443  41.115  0.00  0.00    +0.150 C 
ATOM     16  N   LIG    1       48.780  59.653  41.866  0.00  0.00    -0.209 NA
ATOM     17  C   LIG    1       48.577  60.863  41.081  0.00  0.00    +0.105 C 
BRANCH   8   9
ATOM      9  C   LIG    1       49.518  57.358  41.235  0.00  0.00    +0.242 C 
ATOM     10  O   LIG    1       50.600  57.498  40.666  0.00  0.00    -0.273 OA
ATOM     11  N   LIG    1       49.219  56.307  42.010  0.00  0.00    -0.268 N 
ATOM     12  C   LIG    1       47.902  56.202  42.652  0.00  0.00    +0.106 C 
ATOM     13  C   LIG    1       47.783  54.933  43.503  0.00  0.00    +0.081 C 
ATOM     14  S   LIG    1       49.066  53.919  42.940  0.00  0.00    -0.117 S 
ATOM     15  C   LIG    1       50.124  55.183  42.288  0.00  0.00    +0.152 C 
ENDBRANCH   8   9
ENDBRANCH   5   6
TORSDOF 4
ENDMDL
