MODEL 2
REMARK VINA RESULT:    -8.163      5.444      9.878
REMARK INTER + INTRA:         -10.765
REMARK INTER:                  -9.931
REMARK INTRA:                  -0.835
REMARK UNBOUND:                -0.693
REMARK  Name = ligand_1
REMARK                            x       y       z     vdW  Elec       q    Type
REMARK                         _______ _______ _______ _____ _____    ______ ____
ROOT
ATOM      2  N   LIG    1       51.224  62.641  37.410  0.00  0.00    -0.305 N 
ATOM      3  C   LIG    1       50.870  63.371  38.623  0.00  0.00    +0.108 C 
ATOM      4  C   LIG    1       49.683  62.674  39.297  0.00  0.00    +0.094 C 
ATOM      5  N   LIG    1       49.978  61.246  39.487  0.00  0.00    -0.270 NA
ATOM     18  C   LIG    1       50.348  60.523  38.277  0.00  0.00    +0.094 C 
ATOM     19  C   LIG    1       51.534  61.218  37.612  0.00  0.00    +0.108 C 
ENDROOT
BRANCH   2   1
ATOM      1  C   LIG    1       52.037  63.349  36.457  0.00  0.00    +0.051 A 
ATOM     20  C   LIG    1       51.491  64.005  35.330  0.00  0.00    +0.031 A 
ATOM     21  C   LIG    1       50.141  63.903  35.004  0.00  0.00    +0.003 A 
ATOM     22  C   LIG    1       49.629  64.555  33.886  0.00  0.00    +0.000 A 
ATOM     23  C   LIG    1       50.457  65.321  33.064  0.00  0.00    +0.002 A 
ATOM     24  C   LIG    1       51.808  65.436  33.375  0.00  0.00    +0.019 A 
ATOM     25  C   LIG    1       52.314  64.784  34.495  0.00  0.00    +0.082 A 
ATOM     26  N   LIG    1       53.627  64.906  34.755  0.00  0.00    -0.241 NA
ATOM     27  C   LIG    1       54.192  64.292  35.816  0.00  0.00    +0.154 A 
ATOM     32  C   LIG    1       53.413  63.519  36.691  0.00  0.00    +0.038 A 
BRANCH  27  28
ATOM     28  C   LIG    1       55.665  64.552  35.978  0.00  0.00    +0.435 C 
ATOM     29  F   LIG    1       56.333  63.559  35.428  0.00  0.00    -0.164 F 
ATOM     30  F   LIG    1       56.055  64.746  37.224  0.00  0.00    -0.164 F 
ATOM     31  F   LIG    1       55.930  65.639  35.286  0.00  0.00    -0.164 F 
ENDBRANCH  27  28
ENDBRANCH   2   1
BRANCH   5   6
ATOM      6  C   LIG    1       48.812  60.562  40.112  0.00  0.00    +0.077 C 
ATOM      7  C   LIG    1       48.532  59.182  39.496  0.00  0.00    +0.044 C 
ATOM      8  C   LIG    1       47.829  58.399  40.605  0.00  0.00    +0.150 C 
ATOM     16  N   LIG    1       48.309  59.013  41.838  0.00  0.00    -0.209 NA
ATOM     17  C   LIG    1       49.068  60.232  41.591  0.00  0.00    +0.105 C 
BRANCH   8   9
ATOM      9  C   LIG    1       48.072  56.903  40.533  0.00  0.00    +0.242 C 
ATOM     10  O   LIG    1       49.110  56.435  41.001  0.00  0.00    -0.273 OA
ATOM     11  N   LIG    1       47.099  56.156  39.994  0.00  0.00    -0.268 N 
ATOM     12  C   LIG    1       45.889  56.786  39.447  0.00  0.00    +0.106 C 
ATOM     13  C   LIG    1       44.905  55.747  38.899  0.00  0.00    +0.081 C 
ATOM     14  S   LIG    1       45.860  54.317  38.701  0.00  0.00    -0.117 S 
ATOM     15  C   LIG    1       47.129  54.692  39.881  0.00  0.00    +0.152 C 
ENDBRANCH   8   9
ENDBRANCH   5   6
TORSDOF 4
ENDMDL
