MODEL 4
REMARK VINA RESULT:    -7.766      4.989      9.324
REMARK INTER + INTRA:         -10.276
REMARK INTER:                  -9.929
REMARK INTRA:                  -0.346
REMARK UNBOUND:                -0.693
REMARK  Name = ligand_1
REMARK                            x       y       z     vdW  Elec       q    Type
REMARK                         _______ _______ _______ _____ _____    ______ ____
ROOT
ATOM      2  N   LIG    1       51.216  62.431  37.236  0.00  0.00    -0.305 N 
ATOM      3  C   LIG    1       50.418  61.412  36.561  0.00  0.00    +0.108 C 
ATOM      4  C   LIG    1       49.910  60.406  37.601  0.00  0.00    +0.094 C 
ATOM      5  N   LIG    1       49.229  61.114  38.696  0.00  0.00    -0.270 NA
ATOM     18  C   LIG    1       50.022  62.142  39.358  0.00  0.00    +0.094 C 
ATOM     19  C   LIG    1       50.522  63.144  38.319  0.00  0.00    +0.108 C 
ENDROOT
BRANCH   2   1
ATOM      1  C   LIG    1       52.082  63.217  36.398  0.00  0.00    +0.051 A 
ATOM     20  C   LIG    1       51.599  63.981  35.311  0.00  0.00    +0.031 A 
ATOM     21  C   LIG    1       50.268  63.924  34.908  0.00  0.00    +0.003 A 
ATOM     22  C   LIG    1       49.819  64.684  33.831  0.00  0.00    +0.000 A 
ATOM     23  C   LIG    1       50.693  65.515  33.129  0.00  0.00    +0.002 A 
ATOM     24  C   LIG    1       52.027  65.586  33.520  0.00  0.00    +0.019 A 
ATOM     25  C   LIG    1       52.470  64.828  34.598  0.00  0.00    +0.082 A 
ATOM     26  N   LIG    1       53.768  64.911  34.936  0.00  0.00    -0.241 NA
ATOM     27  C   LIG    1       54.272  64.194  35.962  0.00  0.00    +0.154 A 
ATOM     32  C   LIG    1       53.445  63.350  36.719  0.00  0.00    +0.038 A 
BRANCH  27  28
ATOM     28  C   LIG    1       55.736  64.424  36.225  0.00  0.00    +0.435 C 
ATOM     29  F   LIG    1       56.423  63.442  35.677  0.00  0.00    -0.164 F 
ATOM     30  F   LIG    1       56.051  64.562  37.499  0.00  0.00    -0.164 F 
ATOM     31  F   LIG    1       56.059  65.533  35.595  0.00  0.00    -0.164 F 
ENDBRANCH  27  28
ENDBRANCH   2   1
BRANCH   5   6
ATOM      6  C   LIG    1       48.765  60.139  39.723  0.00  0.00    +0.077 C 
ATOM      7  C   LIG    1       49.528  58.807  39.666  0.00  0.00    +0.044 C 
ATOM      8  C   LIG    1       49.431  58.244  41.084  0.00  0.00    +0.150 C 
ATOM     16  N   LIG    1       49.272  59.424  41.927  0.00  0.00    -0.209 NA
ATOM     17  C   LIG    1       49.045  60.635  41.150  0.00  0.00    +0.105 C 
BRANCH   8   9
ATOM      9  C   LIG    1       50.613  57.374  41.469  0.00  0.00    +0.242 C 
ATOM     10  O   LIG    1       51.756  57.809  41.333  0.00  0.00    -0.273 OA
ATOM     11  N   LIG    1       50.334  56.171  41.991  0.00  0.00    -0.268 N 
ATOM     12  C   LIG    1       48.944  55.714  42.115  0.00  0.00    +0.106 C 
ATOM     13  C   LIG    1       48.857  54.323  42.752  0.00  0.00    +0.081 C 
ATOM     14  S   LIG    1       50.454  53.677  42.587  0.00  0.00    -0.117 S 
ATOM     15  C   LIG    1       51.338  55.210  42.467  0.00  0.00    +0.152 C 
ENDBRANCH   8   9
ENDBRANCH   5   6
TORSDOF 4
ENDMDL
