REMARK VINA RESULT:      -8.5      0.000      0.000
REMARK  Name = ligand_1
REMARK                            x       y       z     vdW  Elec       q    Type
REMARK                         _______ _______ _______ _____ _____    ______ ____
ROOT
ATOM      2  N   LIG    1       50.152  61.872  38.305  0.00  0.00    -0.305 N 
ATOM      3  C   LIG    1       50.324  63.233  38.804  0.00  0.00    +0.108 C 
ATOM      4  C   LIG    1       51.546  63.863  38.127  0.00  0.00    +0.094 C 
ATOM      5  N   LIG    1       51.432  63.739  36.665  0.00  0.00    -0.270 NA
ATOM     18  C   LIG    1       51.244  62.382  36.171  0.00  0.00    +0.094 C 
ATOM     19  C   LIG    1       50.023  61.760  36.845  0.00  0.00    +0.108 C 
ENDROOT
BRANCH   2   1
ATOM      1  C   LIG    1       49.317  61.007  39.094  0.00  0.00    +0.051 A 
ATOM     20  C   LIG    1       49.836  59.927  39.847  0.00  0.00    +0.031 A 
ATOM     21  C   LIG    1       51.177  59.559  39.773  0.00  0.00    +0.003 A 
ATOM     22  C   LIG    1       51.662  58.490  40.520  0.00  0.00    +0.000 A 
ATOM     23  C   LIG    1       50.815  57.759  41.356  0.00  0.00    +0.002 A 
ATOM     24  C   LIG    1       49.473  58.115  41.444  0.00  0.00    +0.019 A 
ATOM     25  C   LIG    1       48.994  59.186  40.697  0.00  0.00    +0.082 A 
ATOM     26  N   LIG    1       47.688  59.490  40.797  0.00  0.00    -0.241 NA
ATOM     27  C   LIG    1       47.150  60.507  40.092  0.00  0.00    +0.154 A 
ATOM     32  C   LIG    1       47.948  61.291  39.244  0.00  0.00    +0.038 A 
BRANCH  27  28
ATOM     28  C   LIG    1       45.682  60.730  40.339  0.00  0.00    +0.435 C 
ATOM     29  F   LIG    1       45.517  61.933  40.849  0.00  0.00    -0.164 F 
ATOM     30  F   LIG    1       45.107  59.816  41.097  0.00  0.00    -0.164 F 
ATOM     31  F   LIG    1       45.100  60.717  39.159  0.00  0.00    -0.164 F 
ENDBRANCH  27  28
ENDBRANCH   2   1
BRANCH   5   6
ATOM      6  C   LIG    1       52.635  64.322  36.008  0.00  0.00    +0.077 C 
ATOM      7  C   LIG    1       53.916  64.130  36.835  0.00  0.00    +0.044 C 
ATOM      8  C   LIG    1       55.047  64.151  35.807  0.00  0.00    +0.150 C 
ATOM     16  N   LIG    1       54.417  63.697  34.572  0.00  0.00    -0.209 NA
ATOM     17  C   LIG    1       52.968  63.608  34.688  0.00  0.00    +0.105 C 
BRANCH   8   9
ATOM      9  C   LIG    1       56.250  63.322  36.218  0.00  0.00    +0.242 C 
ATOM     10  O   LIG    1       56.425  62.215  35.711  0.00  0.00    -0.273 OA
ATOM     11  N   LIG    1       57.097  63.878  37.097  0.00  0.00    -0.268 N 
ATOM     12  C   LIG    1       56.818  65.202  37.668  0.00  0.00    +0.106 C 
ATOM     13  C   LIG    1       57.922  65.649  38.632  0.00  0.00    +0.081 C 
ATOM     14  S   LIG    1       58.768  64.190  39.020  0.00  0.00    -0.117 S 
ATOM     15  C   LIG    1       58.337  63.254  37.577  0.00  0.00    +0.152 C 
ENDBRANCH   8   9
ENDBRANCH   5   6
TORSDOF 4
