MODEL 5
REMARK VINA RESULT:    -6.101      2.289      3.016
REMARK INTER + INTRA:          -8.363
REMARK INTER:                  -9.695
REMARK INTRA:                   1.332
REMARK UNBOUND:                -0.835
REMARK  Name = ligand_1
REMARK                            x       y       z     vdW  Elec       q    Type
REMARK                         _______ _______ _______ _____ _____    ______ ____
ROOT
ATOM      2  N   LIG    1       50.859  62.314  37.296  0.00  0.00    -0.305 N 
ATOM      3  C   LIG    1       49.987  61.328  36.665  0.00  0.00    +0.108 C 
ATOM      4  C   LIG    1       49.520  60.324  37.725  0.00  0.00    +0.094 C 
ATOM      5  N   LIG    1       48.936  61.036  38.872  0.00  0.00    -0.270 NA
ATOM     18  C   LIG    1       49.802  62.032  39.490  0.00  0.00    +0.094 C 
ATOM     19  C   LIG    1       50.260  63.033  38.431  0.00  0.00    +0.108 C 
ENDROOT
BRANCH   2   1
ATOM      1  C   LIG    1       51.690  63.086  36.410  0.00  0.00    +0.051 A 
ATOM     20  C   LIG    1       51.164  63.819  35.321  0.00  0.00    +0.031 A 
ATOM     21  C   LIG    1       49.821  63.742  34.964  0.00  0.00    +0.003 A 
ATOM     22  C   LIG    1       49.330  64.471  33.885  0.00  0.00    +0.000 A 
ATOM     23  C   LIG    1       50.173  65.291  33.134  0.00  0.00    +0.002 A 
ATOM     24  C   LIG    1       51.518  65.383  33.477  0.00  0.00    +0.019 A 
ATOM     25  C   LIG    1       52.003  64.654  34.559  0.00  0.00    +0.082 A 
ATOM     26  N   LIG    1       53.311  64.756  34.851  0.00  0.00    -0.241 NA
ATOM     27  C   LIG    1       53.856  64.069  35.877  0.00  0.00    +0.154 A 
ATOM     32  C   LIG    1       53.061  63.238  36.682  0.00  0.00    +0.038 A 
BRANCH  27  28
ATOM     28  C   LIG    1       55.325  64.316  36.085  0.00  0.00    +0.435 C 
ATOM     29  F   LIG    1       55.539  64.542  37.365  0.00  0.00    -0.164 F 
ATOM     30  F   LIG    1       55.829  65.287  35.347  0.00  0.00    -0.164 F 
ATOM     31  F   LIG    1       55.939  63.195  35.773  0.00  0.00    -0.164 F 
ENDBRANCH  27  28
ENDBRANCH   2   1
BRANCH   5   6
ATOM      6  C   LIG    1       48.513  60.062  39.916  0.00  0.00    +0.077 C 
ATOM      7  C   LIG    1       49.086  58.656  39.685  0.00  0.00    +0.044 C 
ATOM      8  C   LIG    1       49.133  58.023  41.075  0.00  0.00    +0.150 C 
ATOM     16  N   LIG    1       49.252  59.159  41.982  0.00  0.00    -0.209 NA
ATOM     17  C   LIG    1       49.065  60.434  41.302  0.00  0.00    +0.105 C 
BRANCH   8   9
ATOM      9  C   LIG    1       50.241  56.998  41.234  0.00  0.00    +0.242 C 
ATOM     10  O   LIG    1       50.041  55.988  41.908  0.00  0.00    -0.273 OA
ATOM     11  N   LIG    1       51.384  57.236  40.576  0.00  0.00    -0.268 N 
ATOM     12  C   LIG    1       51.556  58.469  39.796  0.00  0.00    +0.106 C 
ATOM     13  C   LIG    1       52.927  58.525  39.116  0.00  0.00    +0.081 C 
ATOM     14  S   LIG    1       53.875  57.352  39.965  0.00  0.00    -0.117 S 
ATOM     15  C   LIG    1       52.549  56.340  40.566  0.00  0.00    +0.152 C 
ENDBRANCH   8   9
ENDBRANCH   5   6
TORSDOF 4
ENDMDL
