MODEL 1
REMARK VINA RESULT:    -8.334      0.000      0.000
REMARK INTER + INTRA:         -11.007
REMARK INTER:                 -10.283
REMARK INTRA:                  -0.724
REMARK UNBOUND:                -0.724
REMARK  Name = ligand_1
REMARK                            x       y       z     vdW  Elec       q    Type
REMARK                         _______ _______ _______ _____ _____    ______ ____
ROOT
ATOM      2  N   LIG    1       50.258  61.694  38.319  0.00  0.00    -0.305 N 
ATOM      3  C   LIG    1       50.175  63.125  38.591  0.00  0.00    +0.108 C 
ATOM      4  C   LIG    1       51.397  63.820  37.982  0.00  0.00    +0.094 C 
ATOM      5  N   LIG    1       51.529  63.458  36.563  0.00  0.00    -0.270 NA
ATOM     18  C   LIG    1       51.594  62.028  36.292  0.00  0.00    +0.094 C 
ATOM     19  C   LIG    1       50.372  61.340  36.896  0.00  0.00    +0.108 C 
ENDROOT
BRANCH   2   1
ATOM      1  C   LIG    1       49.426  60.844  39.130  0.00  0.00    +0.051 A 
ATOM     20  C   LIG    1       49.951  59.785  39.907  0.00  0.00    +0.031 A 
ATOM     21  C   LIG    1       51.293  59.421  39.841  0.00  0.00    +0.003 A 
ATOM     22  C   LIG    1       51.783  58.372  40.614  0.00  0.00    +0.000 A 
ATOM     23  C   LIG    1       50.940  57.659  41.467  0.00  0.00    +0.002 A 
ATOM     24  C   LIG    1       49.596  58.010  41.548  0.00  0.00    +0.019 A 
ATOM     25  C   LIG    1       49.112  59.061  40.776  0.00  0.00    +0.082 A 
ATOM     26  N   LIG    1       47.806  59.361  40.869  0.00  0.00    -0.241 NA
ATOM     27  C   LIG    1       47.262  60.359  40.141  0.00  0.00    +0.154 A 
ATOM     32  C   LIG    1       48.056  61.125  39.274  0.00  0.00    +0.038 A 
BRANCH  27  28
ATOM     28  C   LIG    1       45.794  60.581  40.383  0.00  0.00    +0.435 C 
ATOM     29  F   LIG    1       45.596  61.859  40.635  0.00  0.00    -0.164 F 
ATOM     30  F   LIG    1       45.273  59.829  41.334  0.00  0.00    -0.164 F 
ATOM     31  F   LIG    1       45.183  60.302  39.251  0.00  0.00    -0.164 F 
ENDBRANCH  27  28
ENDBRANCH   2   1
BRANCH   5   6
ATOM      6  C   LIG    1       52.736  64.107  35.979  0.00  0.00    +0.077 C 
ATOM      7  C   LIG    1       53.983  63.948  36.863  0.00  0.00    +0.044 C 
ATOM      8  C   LIG    1       55.160  64.043  35.892  0.00  0.00    +0.150 C 
ATOM     16  N   LIG    1       54.610  63.595  34.617  0.00  0.00    -0.209 NA
ATOM     17  C   LIG    1       53.162  63.442  34.660  0.00  0.00    +0.105 C 
BRANCH   8   9
ATOM      9  C   LIG    1       56.377  63.255  36.342  0.00  0.00    +0.242 C 
ATOM     10  O   LIG    1       56.578  62.134  35.877  0.00  0.00    -0.273 OA
ATOM     11  N   LIG    1       57.205  63.861  37.204  0.00  0.00    -0.268 N 
ATOM     12  C   LIG    1       56.895  65.199  37.724  0.00  0.00    +0.106 C 
ATOM     13  C   LIG    1       57.983  65.705  38.677  0.00  0.00    +0.081 C 
ATOM     14  S   LIG    1       58.856  64.280  39.125  0.00  0.00    -0.117 S 
ATOM     15  C   LIG    1       58.455  63.282  37.715  0.00  0.00    +0.152 C 
ENDBRANCH   8   9
ENDBRANCH   5   6
TORSDOF 4
ENDMDL
