MODEL 6
REMARK VINA RESULT:    -7.514      5.638      7.359
REMARK INTER + INTRA:          -9.965
REMARK INTER:                  -9.819
REMARK INTRA:                  -0.146
REMARK UNBOUND:                -0.693
REMARK  Name = ligand_1
REMARK                            x       y       z     vdW  Elec       q    Type
REMARK                         _______ _______ _______ _____ _____    ______ ____
ROOT
ATOM      2  N   LIG    1       54.672  58.457  38.222  0.00  0.00    -0.305 N 
ATOM      3  C   LIG    1       53.449  58.479  37.425  0.00  0.00    +0.108 C 
ATOM      4  C   LIG    1       53.178  59.916  36.965  0.00  0.00    +0.094 C 
ATOM      5  N   LIG    1       54.370  60.466  36.302  0.00  0.00    -0.270 NA
ATOM     18  C   LIG    1       55.594  60.428  37.093  0.00  0.00    +0.094 C 
ATOM     19  C   LIG    1       55.861  58.994  37.545  0.00  0.00    +0.108 C 
ENDROOT
BRANCH   2   1
ATOM      1  C   LIG    1       54.869  57.297  39.050  0.00  0.00    +0.051 A 
ATOM     20  C   LIG    1       55.592  56.164  38.611  0.00  0.00    +0.031 A 
ATOM     21  C   LIG    1       56.054  56.051  37.302  0.00  0.00    +0.003 A 
ATOM     22  C   LIG    1       56.759  54.922  36.894  0.00  0.00    +0.000 A 
ATOM     23  C   LIG    1       57.015  53.878  37.784  0.00  0.00    +0.002 A 
ATOM     24  C   LIG    1       56.563  53.975  39.096  0.00  0.00    +0.019 A 
ATOM     25  C   LIG    1       55.861  55.106  39.500  0.00  0.00    +0.082 A 
ATOM     26  N   LIG    1       55.427  55.158  40.771  0.00  0.00    -0.241 NA
ATOM     27  C   LIG    1       54.728  56.216  41.231  0.00  0.00    +0.154 A 
ATOM     32  C   LIG    1       54.449  57.307  40.392  0.00  0.00    +0.038 A 
BRANCH  27  28
ATOM     28  C   LIG    1       54.341  56.128  42.682  0.00  0.00    +0.435 C 
ATOM     29  F   LIG    1       54.577  54.904  43.109  0.00  0.00    -0.164 F 
ATOM     30  F   LIG    1       53.097  56.483  42.942  0.00  0.00    -0.164 F 
ATOM     31  F   LIG    1       55.149  56.937  43.333  0.00  0.00    -0.164 F 
ENDBRANCH  27  28
ENDBRANCH   2   1
BRANCH   5   6
ATOM      6  C   LIG    1       54.119  61.873  35.884  0.00  0.00    +0.077 C 
ATOM      7  C   LIG    1       53.360  61.971  34.551  0.00  0.00    +0.044 C 
ATOM      8  C   LIG    1       52.637  63.316  34.615  0.00  0.00    +0.150 C 
ATOM     16  N   LIG    1       52.456  63.558  36.043  0.00  0.00    -0.209 NA
ATOM     17  C   LIG    1       53.186  62.602  36.865  0.00  0.00    +0.105 C 
BRANCH   8   9
ATOM      9  C   LIG    1       51.343  63.343  33.823  0.00  0.00    +0.242 C 
ATOM     10  O   LIG    1       50.679  62.314  33.713  0.00  0.00    -0.273 OA
ATOM     11  N   LIG    1       50.968  64.526  33.317  0.00  0.00    -0.268 N 
ATOM     12  C   LIG    1       51.817  65.713  33.481  0.00  0.00    +0.106 C 
ATOM     13  C   LIG    1       51.189  66.956  32.841  0.00  0.00    +0.081 C 
ATOM     14  S   LIG    1       49.990  66.322  31.765  0.00  0.00    -0.117 S 
ATOM     15  C   LIG    1       49.728  64.762  32.565  0.00  0.00    +0.152 C 
ENDBRANCH   8   9
ENDBRANCH   5   6
TORSDOF 4
ENDMDL
