MODEL 1
REMARK VINA RESULT:    -8.049      0.000      0.000
REMARK INTER + INTRA:         -10.765
REMARK INTER:                  -9.931
REMARK INTRA:                  -0.835
REMARK UNBOUND:                -0.835
REMARK  Name = ligand_1
REMARK                            x       y       z     vdW  Elec       q    Type
REMARK                         _______ _______ _______ _____ _____    ______ ____
ROOT
ATOM      2  N   LIG    1       51.224  62.641  37.410  0.00  0.00    -0.305 N 
ATOM      3  C   LIG    1       50.870  63.371  38.623  0.00  0.00    +0.108 C 
ATOM      4  C   LIG    1       49.683  62.674  39.297  0.00  0.00    +0.094 C 
ATOM      5  N   LIG    1       49.978  61.246  39.487  0.00  0.00    -0.270 NA
ATOM     18  C   LIG    1       50.348  60.523  38.277  0.00  0.00    +0.094 C 
ATOM     19  C   LIG    1       51.534  61.218  37.612  0.00  0.00    +0.108 C 
ENDROOT
BRANCH   2   1
ATOM      1  C   LIG    1       52.037  63.349  36.457  0.00  0.00    +0.051 A 
ATOM     20  C   LIG    1       51.491  64.005  35.330  0.00  0.00    +0.031 A 
ATOM     21  C   LIG    1       50.141  63.903  35.004  0.00  0.00    +0.003 A 
ATOM     22  C   LIG    1       49.629  64.555  33.886  0.00  0.00    +0.000 A 
ATOM     23  C   LIG    1       50.457  65.321  33.064  0.00  0.00    +0.002 A 
ATOM     24  C   LIG    1       51.808  65.436  33.375  0.00  0.00    +0.019 A 
ATOM     25  C   LIG    1       52.314  64.784  34.495  0.00  0.00    +0.082 A 
ATOM     26  N   LIG    1       53.627  64.906  34.755  0.00  0.00    -0.241 NA
ATOM     27  C   LIG    1       54.192  64.292  35.816  0.00  0.00    +0.154 A 
ATOM     32  C   LIG    1       53.413  63.519  36.691  0.00  0.00    +0.038 A 
BRANCH  27  28
ATOM     28  C   LIG    1       55.665  64.552  35.978  0.00  0.00    +0.435 C 
ATOM     29  F   LIG    1       56.333  63.559  35.428  0.00  0.00    -0.164 F 
ATOM     30  F   LIG    1       56.055  64.746  37.224  0.00  0.00    -0.164 F 
ATOM     31  F   LIG    1       55.930  65.639  35.286  0.00  0.00    -0.164 F 
ENDBRANCH  27  28
ENDBRANCH   2   1
BRANCH   5   6
ATOM      6  C   LIG    1       48.812  60.562  40.112  0.00  0.00    +0.077 C 
ATOM      7  C   LIG    1       48.532  59.182  39.496  0.00  0.00    +0.044 C 
ATOM      8  C   LIG    1       47.829  58.399  40.605  0.00  0.00    +0.150 C 
ATOM     16  N   LIG    1       48.309  59.013  41.838  0.00  0.00    -0.209 NA
ATOM     17  C   LIG    1       49.068  60.232  41.591  0.00  0.00    +0.105 C 
BRANCH   8   9
ATOM      9  C   LIG    1       48.072  56.903  40.533  0.00  0.00    +0.242 C 
ATOM     10  O   LIG    1       49.110  56.435  41.001  0.00  0.00    -0.273 OA
ATOM     11  N   LIG    1       47.099  56.156  39.994  0.00  0.00    -0.268 N 
ATOM     12  C   LIG    1       45.889  56.786  39.447  0.00  0.00    +0.106 C 
ATOM     13  C   LIG    1       44.905  55.747  38.899  0.00  0.00    +0.081 C 
ATOM     14  S   LIG    1       45.860  54.317  38.701  0.00  0.00    -0.117 S 
ATOM     15  C   LIG    1       47.129  54.692  39.881  0.00  0.00    +0.152 C 
ENDBRANCH   8   9
ENDBRANCH   5   6
TORSDOF 4
ENDMDL
MODEL 2
REMARK VINA RESULT:    -7.580      2.892      3.908
REMARK INTER + INTRA:         -10.188
REMARK INTER:                  -9.548
REMARK INTRA:                  -0.640
REMARK UNBOUND:                -0.835
REMARK  Name = ligand_1
REMARK                            x       y       z     vdW  Elec       q    Type
REMARK                         _______ _______ _______ _____ _____    ______ ____
ROOT
ATOM      2  N   LIG    1       50.677  63.032  36.572  0.00  0.00    -0.305 N 
ATOM      3  C   LIG    1       49.356  62.627  36.101  0.00  0.00    +0.108 C 
ATOM      4  C   LIG    1       48.875  61.433  36.931  0.00  0.00    +0.094 C 
ATOM      5  N   LIG    1       48.961  61.747  38.366  0.00  0.00    -0.270 NA
ATOM     18  C   LIG    1       50.276  62.167  38.830  0.00  0.00    +0.094 C 
ATOM     19  C   LIG    1       50.750  63.361  38.004  0.00  0.00    +0.108 C 
ENDROOT
BRANCH   2   1
ATOM      1  C   LIG    1       51.443  63.863  35.680  0.00  0.00    +0.051 A 
ATOM     20  C   LIG    1       52.855  63.814  35.621  0.00  0.00    +0.031 A 
ATOM     21  C   LIG    1       53.601  63.046  36.511  0.00  0.00    +0.003 A 
ATOM     22  C   LIG    1       54.990  63.020  36.434  0.00  0.00    +0.000 A 
ATOM     23  C   LIG    1       55.667  63.766  35.468  0.00  0.00    +0.002 A 
ATOM     24  C   LIG    1       54.938  64.537  34.569  0.00  0.00    +0.019 A 
ATOM     25  C   LIG    1       53.549  64.558  34.648  0.00  0.00    +0.082 A 
ATOM     26  N   LIG    1       52.880  65.327  33.772  0.00  0.00    -0.241 NA
ATOM     27  C   LIG    1       51.533  65.408  33.797  0.00  0.00    +0.154 A 
ATOM     32  C   LIG    1       50.790  64.672  34.734  0.00  0.00    +0.038 A 
BRANCH  27  28
ATOM     28  C   LIG    1       50.940  66.291  32.733  0.00  0.00    +0.435 C 
ATOM     29  F   LIG    1       51.094  67.549  33.093  0.00  0.00    -0.164 F 
ATOM     30  F   LIG    1       49.676  66.037  32.449  0.00  0.00    -0.164 F 
ATOM     31  F   LIG    1       51.657  66.099  31.647  0.00  0.00    -0.164 F 
ENDBRANCH  27  28
ENDBRANCH   2   1
BRANCH   5   6
ATOM      6  C   LIG    1       48.524  60.574  39.173  0.00  0.00    +0.077 C 
ATOM      7  C   LIG    1       49.540  59.422  39.145  0.00  0.00    +0.044 C 
ATOM      8  C   LIG    1       49.301  58.663  40.450  0.00  0.00    +0.150 C 
ATOM     16  N   LIG    1       48.753  59.668  41.354  0.00  0.00    -0.209 NA
ATOM     17  C   LIG    1       48.431  60.913  40.670  0.00  0.00    +0.105 C 
BRANCH   8   9
ATOM      9  C   LIG    1       50.544  57.975  40.983  0.00  0.00    +0.242 C 
ATOM     10  O   LIG    1       51.634  58.537  40.890  0.00  0.00    -0.273 OA
ATOM     11  N   LIG    1       50.370  56.787  41.579  0.00  0.00    -0.268 N 
ATOM     12  C   LIG    1       49.037  56.172  41.645  0.00  0.00    +0.106 C 
ATOM     13  C   LIG    1       49.067  54.829  42.384  0.00  0.00    +0.081 C 
ATOM     14  S   LIG    1       50.737  54.376  42.381  0.00  0.00    -0.117 S 
ATOM     15  C   LIG    1       51.440  55.994  42.198  0.00  0.00    +0.152 C 
ENDBRANCH   8   9
ENDBRANCH   5   6
TORSDOF 4
ENDMDL
MODEL 3
REMARK VINA RESULT:    -6.481      4.281      5.573
REMARK INTER + INTRA:          -8.832
REMARK INTER:                  -7.893
REMARK INTRA:                  -0.939
REMARK UNBOUND:                -0.835
REMARK  Name = ligand_1
REMARK                            x       y       z     vdW  Elec       q    Type
REMARK                         _______ _______ _______ _____ _____    ______ ____
ROOT
ATOM      2  N   LIG    1       52.272  60.653  36.148  0.00  0.00    -0.305 N 
ATOM      3  C   LIG    1       52.504  59.490  35.297  0.00  0.00    +0.108 C 
ATOM      4  C   LIG    1       52.717  58.258  36.184  0.00  0.00    +0.094 C 
ATOM      5  N   LIG    1       51.606  58.126  37.140  0.00  0.00    -0.270 NA
ATOM     18  C   LIG    1       51.366  59.294  37.976  0.00  0.00    +0.094 C 
ATOM     19  C   LIG    1       51.149  60.518  37.089  0.00  0.00    +0.108 C 
ENDROOT
BRANCH   2   1
ATOM      1  C   LIG    1       52.439  61.939  35.525  0.00  0.00    +0.051 A 
ATOM     20  C   LIG    1       53.625  62.700  35.658  0.00  0.00    +0.031 A 
ATOM     21  C   LIG    1       54.659  62.305  36.502  0.00  0.00    +0.003 A 
ATOM     22  C   LIG    1       55.813  63.074  36.618  0.00  0.00    +0.000 A 
ATOM     23  C   LIG    1       55.958  64.260  35.896  0.00  0.00    +0.002 A 
ATOM     24  C   LIG    1       54.936  64.668  35.045  0.00  0.00    +0.019 A 
ATOM     25  C   LIG    1       53.785  63.894  34.931  0.00  0.00    +0.082 A 
ATOM     26  N   LIG    1       52.813  64.329  34.111  0.00  0.00    -0.241 NA
ATOM     27  C   LIG    1       51.663  63.639  33.959  0.00  0.00    +0.154 A 
ATOM     32  C   LIG    1       51.459  62.431  34.646  0.00  0.00    +0.038 A 
BRANCH  27  28
ATOM     28  C   LIG    1       50.692  64.249  32.986  0.00  0.00    +0.435 C 
ATOM     29  F   LIG    1       50.135  65.303  33.548  0.00  0.00    -0.164 F 
ATOM     30  F   LIG    1       49.771  63.418  32.534  0.00  0.00    -0.164 F 
ATOM     31  F   LIG    1       51.404  64.675  31.965  0.00  0.00    -0.164 F 
ENDBRANCH  27  28
ENDBRANCH   2   1
BRANCH   5   6
ATOM      6  C   LIG    1       51.830  56.948  38.023  0.00  0.00    +0.077 C 
ATOM      7  C   LIG    1       52.688  57.281  39.253  0.00  0.00    +0.044 C 
ATOM      8  C   LIG    1       52.274  56.252  40.305  0.00  0.00    +0.150 C 
ATOM     16  N   LIG    1       50.907  55.897  39.939  0.00  0.00    -0.209 NA
ATOM     17  C   LIG    1       50.519  56.442  38.645  0.00  0.00    +0.105 C 
BRANCH   8   9
ATOM      9  C   LIG    1       52.413  56.756  41.729  0.00  0.00    +0.242 C 
ATOM     10  O   LIG    1       51.727  57.707  42.105  0.00  0.00    -0.273 OA
ATOM     11  N   LIG    1       53.261  56.092  42.526  0.00  0.00    -0.268 N 
ATOM     12  C   LIG    1       54.054  54.971  42.005  0.00  0.00    +0.106 C 
ATOM     13  C   LIG    1       54.940  54.349  43.090  0.00  0.00    +0.081 C 
ATOM     14  S   LIG    1       55.002  55.551  44.333  0.00  0.00    -0.117 S 
ATOM     15  C   LIG    1       53.494  56.398  43.944  0.00  0.00    +0.152 C 
ENDBRANCH   8   9
ENDBRANCH   5   6
TORSDOF 4
ENDMDL
MODEL 4
REMARK VINA RESULT:    -5.781      4.705      5.865
REMARK INTER + INTRA:          -7.968
REMARK INTER:                  -7.156
REMARK INTRA:                  -0.812
REMARK UNBOUND:                -0.835
REMARK  Name = ligand_1
REMARK                            x       y       z     vdW  Elec       q    Type
REMARK                         _______ _______ _______ _____ _____    ______ ____
ROOT
ATOM      2  N   LIG    1       50.546  60.819  35.635  0.00  0.00    -0.305 N 
ATOM      3  C   LIG    1       51.301  59.921  34.767  0.00  0.00    +0.108 C 
ATOM      4  C   LIG    1       51.913  58.803  35.616  0.00  0.00    +0.094 C 
ATOM      5  N   LIG    1       50.870  58.159  36.430  0.00  0.00    -0.270 NA
ATOM     18  C   LIG    1       50.107  59.059  37.284  0.00  0.00    +0.094 C 
ATOM     19  C   LIG    1       49.495  60.169  36.432  0.00  0.00    +0.108 C 
ENDROOT
BRANCH   2   1
ATOM      1  C   LIG    1       50.235  62.115  35.094  0.00  0.00    +0.051 A 
ATOM     20  C   LIG    1       51.180  63.167  35.050  0.00  0.00    +0.031 A 
ATOM     21  C   LIG    1       52.435  63.051  35.643  0.00  0.00    +0.003 A 
ATOM     22  C   LIG    1       53.344  64.103  35.590  0.00  0.00    +0.000 A 
ATOM     23  C   LIG    1       53.018  65.299  34.947  0.00  0.00    +0.002 A 
ATOM     24  C   LIG    1       51.770  65.431  34.348  0.00  0.00    +0.019 A 
ATOM     25  C   LIG    1       50.865  64.376  34.401  0.00  0.00    +0.082 A 
ATOM     26  N   LIG    1       49.663  64.547  33.824  0.00  0.00    -0.241 NA
ATOM     27  C   LIG    1       48.730  63.573  33.848  0.00  0.00    +0.154 A 
ATOM     32  C   LIG    1       48.999  62.340  34.464  0.00  0.00    +0.038 A 
BRANCH  27  28
ATOM     28  C   LIG    1       47.451  63.915  33.134  0.00  0.00    +0.435 C 
ATOM     29  F   LIG    1       46.458  63.867  33.999  0.00  0.00    -0.164 F 
ATOM     30  F   LIG    1       47.191  63.164  32.080  0.00  0.00    -0.164 F 
ATOM     31  F   LIG    1       47.568  65.164  32.736  0.00  0.00    -0.164 F 
ENDBRANCH  27  28
ENDBRANCH   2   1
BRANCH   5   6
ATOM      6  C   LIG    1       51.471  57.093  37.280  0.00  0.00    +0.077 C 
ATOM      7  C   LIG    1       52.254  57.657  38.476  0.00  0.00    +0.044 C 
ATOM      8  C   LIG    1       52.210  56.548  39.526  0.00  0.00    +0.150 C 
ATOM     16  N   LIG    1       50.989  55.811  39.217  0.00  0.00    -0.209 NA
ATOM     17  C   LIG    1       50.396  56.225  37.953  0.00  0.00    +0.105 C 
BRANCH   8   9
ATOM      9  C   LIG    1       52.266  57.065  40.952  0.00  0.00    +0.242 C 
ATOM     10  O   LIG    1       51.584  58.038  41.271  0.00  0.00    -0.273 OA
ATOM     11  N   LIG    1       53.039  56.387  41.811  0.00  0.00    -0.268 N 
ATOM     12  C   LIG    1       53.833  55.238  41.357  0.00  0.00    +0.106 C 
ATOM     13  C   LIG    1       54.625  54.604  42.505  0.00  0.00    +0.081 C 
ATOM     14  S   LIG    1       54.637  55.818  43.738  0.00  0.00    -0.117 S 
ATOM     15  C   LIG    1       53.184  56.703  43.239  0.00  0.00    +0.152 C 
ENDBRANCH   8   9
ENDBRANCH   5   6
TORSDOF 4
ENDMDL
