MODEL 8
REMARK VINA RESULT:    -5.871      4.671      8.015
REMARK INTER + INTRA:          -7.968
REMARK INTER:                  -7.156
REMARK INTRA:                  -0.812
REMARK UNBOUND:                -0.724
REMARK  Name = ligand_1
REMARK                            x       y       z     vdW  Elec       q    Type
REMARK                         _______ _______ _______ _____ _____    ______ ____
ROOT
ATOM      2  N   LIG    1       50.546  60.819  35.635  0.00  0.00    -0.305 N 
ATOM      3  C   LIG    1       51.301  59.921  34.767  0.00  0.00    +0.108 C 
ATOM      4  C   LIG    1       51.913  58.803  35.616  0.00  0.00    +0.094 C 
ATOM      5  N   LIG    1       50.870  58.159  36.430  0.00  0.00    -0.270 NA
ATOM     18  C   LIG    1       50.107  59.059  37.284  0.00  0.00    +0.094 C 
ATOM     19  C   LIG    1       49.495  60.169  36.432  0.00  0.00    +0.108 C 
ENDROOT
BRANCH   2   1
ATOM      1  C   LIG    1       50.235  62.115  35.094  0.00  0.00    +0.051 A 
ATOM     20  C   LIG    1       51.180  63.167  35.050  0.00  0.00    +0.031 A 
ATOM     21  C   LIG    1       52.435  63.051  35.643  0.00  0.00    +0.003 A 
ATOM     22  C   LIG    1       53.344  64.103  35.590  0.00  0.00    +0.000 A 
ATOM     23  C   LIG    1       53.018  65.299  34.947  0.00  0.00    +0.002 A 
ATOM     24  C   LIG    1       51.770  65.431  34.348  0.00  0.00    +0.019 A 
ATOM     25  C   LIG    1       50.865  64.376  34.401  0.00  0.00    +0.082 A 
ATOM     26  N   LIG    1       49.663  64.547  33.824  0.00  0.00    -0.241 NA
ATOM     27  C   LIG    1       48.730  63.573  33.848  0.00  0.00    +0.154 A 
ATOM     32  C   LIG    1       48.999  62.340  34.464  0.00  0.00    +0.038 A 
BRANCH  27  28
ATOM     28  C   LIG    1       47.451  63.915  33.134  0.00  0.00    +0.435 C 
ATOM     29  F   LIG    1       46.458  63.867  33.999  0.00  0.00    -0.164 F 
ATOM     30  F   LIG    1       47.191  63.164  32.080  0.00  0.00    -0.164 F 
ATOM     31  F   LIG    1       47.568  65.164  32.736  0.00  0.00    -0.164 F 
ENDBRANCH  27  28
ENDBRANCH   2   1
BRANCH   5   6
ATOM      6  C   LIG    1       51.471  57.093  37.280  0.00  0.00    +0.077 C 
ATOM      7  C   LIG    1       52.254  57.657  38.476  0.00  0.00    +0.044 C 
ATOM      8  C   LIG    1       52.210  56.548  39.526  0.00  0.00    +0.150 C 
ATOM     16  N   LIG    1       50.989  55.811  39.217  0.00  0.00    -0.209 NA
ATOM     17  C   LIG    1       50.396  56.225  37.953  0.00  0.00    +0.105 C 
BRANCH   8   9
ATOM      9  C   LIG    1       52.266  57.065  40.952  0.00  0.00    +0.242 C 
ATOM     10  O   LIG    1       51.584  58.038  41.271  0.00  0.00    -0.273 OA
ATOM     11  N   LIG    1       53.039  56.387  41.811  0.00  0.00    -0.268 N 
ATOM     12  C   LIG    1       53.833  55.238  41.357  0.00  0.00    +0.106 C 
ATOM     13  C   LIG    1       54.625  54.604  42.505  0.00  0.00    +0.081 C 
ATOM     14  S   LIG    1       54.637  55.818  43.738  0.00  0.00    -0.117 S 
ATOM     15  C   LIG    1       53.184  56.703  43.239  0.00  0.00    +0.152 C 
ENDBRANCH   8   9
ENDBRANCH   5   6
TORSDOF 4
ENDMDL
