MODEL 8
REMARK VINA RESULT:    -6.817      5.020      7.944
REMARK INTER + INTRA:          -9.113
REMARK INTER:                  -8.248
REMARK INTRA:                  -0.865
REMARK UNBOUND:                -0.702
REMARK  Name = ligand_1
REMARK                            x       y       z     vdW  Elec       q    Type
REMARK                         _______ _______ _______ _____ _____    ______ ____
ROOT
ATOM      2  N   LIG    1       51.006  62.319  35.100  0.00  0.00    -0.305 N 
ATOM      3  C   LIG    1       51.856  61.289  34.510  0.00  0.00    +0.108 C 
ATOM      4  C   LIG    1       52.902  60.853  35.541  0.00  0.00    +0.094 C 
ATOM      5  N   LIG    1       52.242  60.476  36.801  0.00  0.00    -0.270 NA
ATOM     18  C   LIG    1       51.381  61.499  37.380  0.00  0.00    +0.094 C 
ATOM     19  C   LIG    1       50.338  61.927  36.350  0.00  0.00    +0.108 C 
ENDROOT
BRANCH   2   1
ATOM      1  C   LIG    1       50.237  63.113  34.179  0.00  0.00    +0.051 A 
ATOM     20  C   LIG    1       50.583  64.445  33.852  0.00  0.00    +0.031 A 
ATOM     21  C   LIG    1       51.621  65.113  34.496  0.00  0.00    +0.003 A 
ATOM     22  C   LIG    1       51.938  66.425  34.158  0.00  0.00    +0.000 A 
ATOM     23  C   LIG    1       51.220  67.103  33.171  0.00  0.00    +0.002 A 
ATOM     24  C   LIG    1       50.180  66.450  32.516  0.00  0.00    +0.019 A 
ATOM     25  C   LIG    1       49.870  65.137  32.855  0.00  0.00    +0.082 A 
ATOM     26  N   LIG    1       48.850  64.545  32.211  0.00  0.00    -0.241 NA
ATOM     27  C   LIG    1       48.482  63.279  32.497  0.00  0.00    +0.154 A 
ATOM     32  C   LIG    1       49.171  62.536  33.468  0.00  0.00    +0.038 A 
BRANCH  27  28
ATOM     28  C   LIG    1       47.339  62.757  31.667  0.00  0.00    +0.435 C 
ATOM     29  F   LIG    1       47.383  63.328  30.480  0.00  0.00    -0.164 F 
ATOM     30  F   LIG    1       46.149  62.907  32.216  0.00  0.00    -0.164 F 
ATOM     31  F   LIG    1       47.560  61.471  31.496  0.00  0.00    -0.164 F 
ENDBRANCH  27  28
ENDBRANCH   2   1
BRANCH   5   6
ATOM      6  C   LIG    1       53.261  60.084  37.814  0.00  0.00    +0.077 C 
ATOM      7  C   LIG    1       53.110  58.626  38.275  0.00  0.00    +0.044 C 
ATOM      8  C   LIG    1       54.511  58.216  38.730  0.00  0.00    +0.150 C 
ATOM     16  N   LIG    1       55.403  59.074  37.957  0.00  0.00    -0.209 NA
ATOM     17  C   LIG    1       54.684  60.115  37.235  0.00  0.00    +0.105 C 
BRANCH   8   9
ATOM      9  C   LIG    1       54.790  56.735  38.560  0.00  0.00    +0.242 C 
ATOM     10  O   LIG    1       55.006  56.283  37.436  0.00  0.00    -0.273 OA
ATOM     11  N   LIG    1       54.832  55.995  39.677  0.00  0.00    -0.268 N 
ATOM     12  C   LIG    1       54.555  56.601  40.986  0.00  0.00    +0.106 C 
ATOM     13  C   LIG    1       54.675  55.580  42.123  0.00  0.00    +0.081 C 
ATOM     14  S   LIG    1       54.590  54.045  41.329  0.00  0.00    -0.117 S 
ATOM     15  C   LIG    1       55.135  54.558  39.722  0.00  0.00    +0.152 C 
ENDBRANCH   8   9
ENDBRANCH   5   6
TORSDOF 4
ENDMDL
