MODEL 8
REMARK VINA RESULT:    -5.606      4.916      6.311
REMARK INTER + INTRA:          -7.631
REMARK INTER:                  -7.236
REMARK INTRA:                  -0.396
REMARK UNBOUND:                -0.714
REMARK  Name = ligand_1
REMARK                            x       y       z     vdW  Elec       q    Type
REMARK                         _______ _______ _______ _____ _____    ______ ____
ROOT
ATOM      2  N   LIG    1       51.076  57.967  38.412  0.00  0.00    -0.305 N 
ATOM      3  C   LIG    1       50.864  59.411  38.460  0.00  0.00    +0.108 C 
ATOM      4  C   LIG    1       51.301  60.024  37.126  0.00  0.00    +0.094 C 
ATOM      5  N   LIG    1       50.639  59.330  36.011  0.00  0.00    -0.270 NA
ATOM     18  C   LIG    1       50.838  57.887  35.973  0.00  0.00    +0.094 C 
ATOM     19  C   LIG    1       50.397  57.279  37.303  0.00  0.00    +0.108 C 
ENDROOT
BRANCH   2   1
ATOM      1  C   LIG    1       51.096  57.285  39.678  0.00  0.00    +0.051 A 
ATOM     20  C   LIG    1       52.285  57.088  40.417  0.00  0.00    +0.031 A 
ATOM     21  C   LIG    1       53.533  57.435  39.906  0.00  0.00    +0.003 A 
ATOM     22  C   LIG    1       54.689  57.227  40.652  0.00  0.00    +0.000 A 
ATOM     23  C   LIG    1       54.625  56.660  41.927  0.00  0.00    +0.002 A 
ATOM     24  C   LIG    1       53.387  56.309  42.454  0.00  0.00    +0.019 A 
ATOM     25  C   LIG    1       52.234  56.523  41.706  0.00  0.00    +0.082 A 
ATOM     26  N   LIG    1       51.057  56.157  42.243  0.00  0.00    -0.241 NA
ATOM     27  C   LIG    1       49.899  56.320  41.570  0.00  0.00    +0.154 A 
ATOM     32  C   LIG    1       49.891  56.897  40.290  0.00  0.00    +0.038 A 
BRANCH  27  28
ATOM     28  C   LIG    1       48.672  55.883  42.323  0.00  0.00    +0.435 C 
ATOM     29  F   LIG    1       48.013  56.955  42.716  0.00  0.00    -0.164 F 
ATOM     30  F   LIG    1       48.909  55.079  43.342  0.00  0.00    -0.164 F 
ATOM     31  F   LIG    1       47.911  55.246  41.459  0.00  0.00    -0.164 F 
ENDBRANCH  27  28
ENDBRANCH   2   1
BRANCH   5   6
ATOM      6  C   LIG    1       51.088  59.905  34.712  0.00  0.00    +0.077 C 
ATOM      7  C   LIG    1       50.202  61.066  34.237  0.00  0.00    +0.044 C 
ATOM      8  C   LIG    1       51.114  61.913  33.351  0.00  0.00    +0.150 C 
ATOM     16  N   LIG    1       52.455  61.646  33.859  0.00  0.00    -0.209 NA
ATOM     17  C   LIG    1       52.476  60.557  34.825  0.00  0.00    +0.105 C 
BRANCH   8   9
ATOM      9  C   LIG    1       50.748  63.386  33.341  0.00  0.00    +0.242 C 
ATOM     10  O   LIG    1       51.490  64.199  33.890  0.00  0.00    -0.273 OA
ATOM     11  N   LIG    1       49.634  63.728  32.679  0.00  0.00    -0.268 N 
ATOM     12  C   LIG    1       48.790  62.700  32.054  0.00  0.00    +0.106 C 
ATOM     13  C   LIG    1       47.582  63.314  31.339  0.00  0.00    +0.081 C 
ATOM     14  S   LIG    1       47.457  64.908  32.001  0.00  0.00    -0.117 S 
ATOM     15  C   LIG    1       49.142  65.103  32.517  0.00  0.00    +0.152 C 
ENDBRANCH   8   9
ENDBRANCH   5   6
TORSDOF 4
ENDMDL
