MODEL 7
REMARK VINA RESULT:    -6.276      3.901      5.680
REMARK INTER + INTRA:          -8.458
REMARK INTER:                  -7.625
REMARK INTRA:                  -0.832
REMARK UNBOUND:                -0.714
REMARK  Name = ligand_1
REMARK                            x       y       z     vdW  Elec       q    Type
REMARK                         _______ _______ _______ _____ _____    ______ ____
ROOT
ATOM      2  N   LIG    1       49.994  58.420  40.132  0.00  0.00    -0.305 N 
ATOM      3  C   LIG    1       49.394  59.478  40.940  0.00  0.00    +0.108 C 
ATOM      4  C   LIG    1       49.426  60.789  40.148  0.00  0.00    +0.094 C 
ATOM      5  N   LIG    1       48.821  60.593  38.822  0.00  0.00    -0.270 NA
ATOM     18  C   LIG    1       49.409  59.526  38.023  0.00  0.00    +0.094 C 
ATOM     19  C   LIG    1       49.371  58.220  38.814  0.00  0.00    +0.108 C 
ENDROOT
BRANCH   2   1
ATOM      1  C   LIG    1       50.402  57.235  40.838  0.00  0.00    +0.051 A 
ATOM     20  C   LIG    1       51.761  56.876  40.999  0.00  0.00    +0.031 A 
ATOM     21  C   LIG    1       52.785  57.585  40.377  0.00  0.00    +0.003 A 
ATOM     22  C   LIG    1       54.114  57.208  40.548  0.00  0.00    +0.000 A 
ATOM     23  C   LIG    1       54.450  56.110  41.342  0.00  0.00    +0.002 A 
ATOM     24  C   LIG    1       53.439  55.392  41.973  0.00  0.00    +0.019 A 
ATOM     25  C   LIG    1       52.112  55.774  41.801  0.00  0.00    +0.082 A 
ATOM     26  N   LIG    1       51.163  55.047  42.414  0.00  0.00    -0.241 NA
ATOM     27  C   LIG    1       49.855  55.349  42.282  0.00  0.00    +0.154 A 
ATOM     32  C   LIG    1       49.449  56.450  41.510  0.00  0.00    +0.038 A 
BRANCH  27  28
ATOM     28  C   LIG    1       48.925  54.453  43.054  0.00  0.00    +0.435 C 
ATOM     29  F   LIG    1       48.284  53.675  42.205  0.00  0.00    -0.164 F 
ATOM     30  F   LIG    1       48.076  55.087  43.841  0.00  0.00    -0.164 F 
ATOM     31  F   LIG    1       49.686  53.680  43.800  0.00  0.00    -0.164 F 
ENDBRANCH  27  28
ENDBRANCH   2   1
BRANCH   5   6
ATOM      6  C   LIG    1       48.882  61.860  38.040  0.00  0.00    +0.077 C 
ATOM      7  C   LIG    1       50.135  61.954  37.157  0.00  0.00    +0.044 C 
ATOM      8  C   LIG    1       49.734  62.884  36.013  0.00  0.00    +0.150 C 
ATOM     16  N   LIG    1       48.287  62.726  35.913  0.00  0.00    -0.209 NA
ATOM     17  C   LIG    1       47.735  61.958  37.021  0.00  0.00    +0.105 C 
BRANCH   8   9
ATOM      9  C   LIG    1       50.470  62.598  34.717  0.00  0.00    +0.242 C 
ATOM     10  O   LIG    1       49.995  61.794  33.915  0.00  0.00    -0.273 OA
ATOM     11  N   LIG    1       51.597  63.288  34.495  0.00  0.00    -0.268 N 
ATOM     12  C   LIG    1       52.109  64.227  35.503  0.00  0.00    +0.106 C 
ATOM     13  C   LIG    1       53.395  64.917  35.035  0.00  0.00    +0.081 C 
ATOM     14  S   LIG    1       53.965  63.925  33.737  0.00  0.00    -0.117 S 
ATOM     15  C   LIG    1       52.419  63.186  33.282  0.00  0.00    +0.152 C 
ENDBRANCH   8   9
ENDBRANCH   5   6
TORSDOF 4
ENDMDL
