MODEL 6
REMARK VINA RESULT:    -5.991      3.308      4.609
REMARK INTER + INTRA:          -8.227
REMARK INTER:                  -8.722
REMARK INTRA:                   0.495
REMARK UNBOUND:                -0.835
REMARK  Name = ligand_1
REMARK                            x       y       z     vdW  Elec       q    Type
REMARK                         _______ _______ _______ _____ _____    ______ ____
ROOT
ATOM      2  N   LIG    1       51.011  62.550  36.711  0.00  0.00    -0.305 N 
ATOM      3  C   LIG    1       50.108  61.602  36.066  0.00  0.00    +0.108 C 
ATOM      4  C   LIG    1       49.848  60.431  37.020  0.00  0.00    +0.094 C 
ATOM      5  N   LIG    1       49.399  60.936  38.327  0.00  0.00    -0.270 NA
ATOM     18  C   LIG    1       50.294  61.895  38.962  0.00  0.00    +0.094 C 
ATOM     19  C   LIG    1       50.546  63.062  38.009  0.00  0.00    +0.108 C 
ENDROOT
BRANCH   2   1
ATOM      1  C   LIG    1       51.668  63.492  35.845  0.00  0.00    +0.051 A 
ATOM     20  C   LIG    1       53.076  63.592  35.760  0.00  0.00    +0.031 A 
ATOM     21  C   LIG    1       53.916  62.868  36.602  0.00  0.00    +0.003 A 
ATOM     22  C   LIG    1       55.299  62.989  36.500  0.00  0.00    +0.000 A 
ATOM     23  C   LIG    1       55.875  63.841  35.557  0.00  0.00    +0.002 A 
ATOM     24  C   LIG    1       55.051  64.571  34.706  0.00  0.00    +0.019 A 
ATOM     25  C   LIG    1       53.670  64.445  34.809  0.00  0.00    +0.082 A 
ATOM     26  N   LIG    1       52.907  65.177  33.980  0.00  0.00    -0.241 NA
ATOM     27  C   LIG    1       51.560  65.117  34.031  0.00  0.00    +0.154 A 
ATOM     32  C   LIG    1       50.916  64.269  34.947  0.00  0.00    +0.038 A 
BRANCH  27  28
ATOM     28  C   LIG    1       50.856  65.979  33.018  0.00  0.00    +0.435 C 
ATOM     29  F   LIG    1       51.320  65.687  31.820  0.00  0.00    -0.164 F 
ATOM     30  F   LIG    1       50.937  67.276  33.248  0.00  0.00    -0.164 F 
ATOM     31  F   LIG    1       49.588  65.629  33.048  0.00  0.00    -0.164 F 
ENDBRANCH  27  28
ENDBRANCH   2   1
BRANCH   5   6
ATOM      6  C   LIG    1       49.178  59.800  39.265  0.00  0.00    +0.077 C 
ATOM      7  C   LIG    1       49.913  58.521  38.834  0.00  0.00    +0.044 C 
ATOM      8  C   LIG    1       50.136  57.746  40.132  0.00  0.00    +0.150 C 
ATOM     16  N   LIG    1       50.166  58.778  41.164  0.00  0.00    -0.209 NA
ATOM     17  C   LIG    1       49.769  60.084  40.656  0.00  0.00    +0.105 C 
BRANCH   8   9
ATOM      9  C   LIG    1       51.376  56.872  40.107  0.00  0.00    +0.242 C 
ATOM     10  O   LIG    1       51.332  55.743  40.594  0.00  0.00    -0.273 OA
ATOM     11  N   LIG    1       52.459  57.376  39.499  0.00  0.00    -0.268 N 
ATOM     12  C   LIG    1       52.442  58.737  38.947  0.00  0.00    +0.106 C 
ATOM     13  C   LIG    1       53.775  59.099  38.284  0.00  0.00    +0.081 C 
ATOM     14  S   LIG    1       54.894  57.939  38.914  0.00  0.00    -0.117 S 
ATOM     15  C   LIG    1       53.734  56.665  39.331  0.00  0.00    +0.152 C 
ENDBRANCH   8   9
ENDBRANCH   5   6
TORSDOF 4
ENDMDL
