MODEL 1
REMARK VINA RESULT:    -8.354      0.000      0.000
REMARK INTER + INTRA:         -11.084
REMARK INTER:                 -10.308
REMARK INTRA:                  -0.777
REMARK UNBOUND:                -0.777
REMARK  Name = ligand_1
REMARK                            x       y       z     vdW  Elec       q    Type
REMARK                         _______ _______ _______ _____ _____    ______ ____
ROOT
ATOM      2  N   LIG    1       50.191  61.740  38.363  0.00  0.00    -0.305 N 
ATOM      3  C   LIG    1       50.190  63.149  38.746  0.00  0.00    +0.108 C 
ATOM      4  C   LIG    1       51.413  63.834  38.128  0.00  0.00    +0.094 C 
ATOM      5  N   LIG    1       51.458  63.577  36.681  0.00  0.00    -0.270 NA
ATOM     18  C   LIG    1       51.441  62.171  36.300  0.00  0.00    +0.094 C 
ATOM     19  C   LIG    1       50.218  61.493  36.914  0.00  0.00    +0.108 C 
ENDROOT
BRANCH   2   1
ATOM      1  C   LIG    1       49.360  60.867  39.150  0.00  0.00    +0.051 A 
ATOM     20  C   LIG    1       49.887  59.801  39.915  0.00  0.00    +0.031 A 
ATOM     21  C   LIG    1       51.235  59.453  39.856  0.00  0.00    +0.003 A 
ATOM     22  C   LIG    1       51.727  58.395  40.616  0.00  0.00    +0.000 A 
ATOM     23  C   LIG    1       50.883  57.658  41.448  0.00  0.00    +0.002 A 
ATOM     24  C   LIG    1       49.535  57.994  41.520  0.00  0.00    +0.019 A 
ATOM     25  C   LIG    1       49.048  59.053  40.761  0.00  0.00    +0.082 A 
ATOM     26  N   LIG    1       47.737  59.338  40.846  0.00  0.00    -0.241 NA
ATOM     27  C   LIG    1       47.190  60.342  40.129  0.00  0.00    +0.154 A 
ATOM     32  C   LIG    1       47.986  61.132  39.284  0.00  0.00    +0.038 A 
BRANCH  27  28
ATOM     28  C   LIG    1       45.717  60.544  40.359  0.00  0.00    +0.435 C 
ATOM     29  F   LIG    1       45.324  59.734  41.321  0.00  0.00    -0.164 F 
ATOM     30  F   LIG    1       44.967  60.395  39.284  0.00  0.00    -0.164 F 
ATOM     31  F   LIG    1       45.575  61.777  40.798  0.00  0.00    -0.164 F 
ENDBRANCH  27  28
ENDBRANCH   2   1
BRANCH   5   6
ATOM      6  C   LIG    1       52.665  64.216  36.085  0.00  0.00    +0.077 C 
ATOM      7  C   LIG    1       53.926  64.017  36.940  0.00  0.00    +0.044 C 
ATOM      8  C   LIG    1       55.085  64.109  35.947  0.00  0.00    +0.150 C 
ATOM     16  N   LIG    1       54.501  63.697  34.675  0.00  0.00    -0.209 NA
ATOM     17  C   LIG    1       53.051  63.570  34.745  0.00  0.00    +0.105 C 
BRANCH   8   9
ATOM      9  C   LIG    1       56.295  63.291  36.356  0.00  0.00    +0.242 C 
ATOM     10  O   LIG    1       56.458  62.170  35.877  0.00  0.00    -0.273 OA
ATOM     11  N   LIG    1       57.161  63.870  37.199  0.00  0.00    -0.268 N 
ATOM     12  C   LIG    1       56.896  65.211  37.739  0.00  0.00    +0.106 C 
ATOM     13  C   LIG    1       58.021  65.684  38.665  0.00  0.00    +0.081 C 
ATOM     14  S   LIG    1       58.874  64.236  39.076  0.00  0.00    -0.117 S 
ATOM     15  C   LIG    1       58.411  63.259  37.671  0.00  0.00    +0.152 C 
ENDBRANCH   8   9
ENDBRANCH   5   6
TORSDOF 4
ENDMDL
