MODEL 1
REMARK VINA RESULT:    -8.472      0.000      0.000
REMARK INTER + INTRA:         -11.146
REMARK INTER:                 -10.453
REMARK INTRA:                  -0.693
REMARK UNBOUND:                -0.693
REMARK  Name = ligand_1
REMARK                            x       y       z     vdW  Elec       q    Type
REMARK                         _______ _______ _______ _____ _____    ______ ____
ROOT
ATOM      2  N   LIG    1       50.215  61.908  38.281  0.00  0.00    -0.305 N 
ATOM      3  C   LIG    1       50.396  63.260  38.800  0.00  0.00    +0.108 C 
ATOM      4  C   LIG    1       51.621  63.892  38.131  0.00  0.00    +0.094 C 
ATOM      5  N   LIG    1       51.506  63.791  36.668  0.00  0.00    -0.270 NA
ATOM     18  C   LIG    1       51.309  62.442  36.153  0.00  0.00    +0.094 C 
ATOM     19  C   LIG    1       50.084  61.818  36.819  0.00  0.00    +0.108 C 
ENDROOT
BRANCH   2   1
ATOM      1  C   LIG    1       49.374  61.036  39.058  0.00  0.00    +0.051 A 
ATOM     20  C   LIG    1       49.888  59.950  39.803  0.00  0.00    +0.031 A 
ATOM     21  C   LIG    1       51.229  59.580  39.732  0.00  0.00    +0.003 A 
ATOM     22  C   LIG    1       51.708  58.503  40.472  0.00  0.00    +0.000 A 
ATOM     23  C   LIG    1       50.856  57.766  41.297  0.00  0.00    +0.002 A 
ATOM     24  C   LIG    1       49.514  58.123  41.381  0.00  0.00    +0.019 A 
ATOM     25  C   LIG    1       49.041  59.202  40.642  0.00  0.00    +0.082 A 
ATOM     26  N   LIG    1       47.735  59.506  40.738  0.00  0.00    -0.241 NA
ATOM     27  C   LIG    1       47.201  60.530  40.041  0.00  0.00    +0.154 A 
ATOM     32  C   LIG    1       48.005  61.321  39.204  0.00  0.00    +0.038 A 
BRANCH  27  28
ATOM     28  C   LIG    1       45.733  60.753  40.282  0.00  0.00    +0.435 C 
ATOM     29  F   LIG    1       45.358  60.023  41.312  0.00  0.00    -0.164 F 
ATOM     30  F   LIG    1       44.962  60.520  39.236  0.00  0.00    -0.164 F 
ATOM     31  F   LIG    1       45.599  62.017  40.623  0.00  0.00    -0.164 F 
ENDBRANCH  27  28
ENDBRANCH   2   1
BRANCH   5   6
ATOM      6  C   LIG    1       52.712  64.375  36.019  0.00  0.00    +0.077 C 
ATOM      7  C   LIG    1       53.989  64.177  36.850  0.00  0.00    +0.044 C 
ATOM      8  C   LIG    1       55.125  64.202  35.827  0.00  0.00    +0.150 C 
ATOM     16  N   LIG    1       54.499  63.755  34.587  0.00  0.00    -0.209 NA
ATOM     17  C   LIG    1       53.050  63.667  34.697  0.00  0.00    +0.105 C 
BRANCH   8   9
ATOM      9  C   LIG    1       56.325  63.370  36.239  0.00  0.00    +0.242 C 
ATOM     10  O   LIG    1       56.504  62.267  35.723  0.00  0.00    -0.273 OA
ATOM     11  N   LIG    1       57.165  63.918  37.128  0.00  0.00    -0.268 N 
ATOM     12  C   LIG    1       56.883  65.237  37.709  0.00  0.00    +0.106 C 
ATOM     13  C   LIG    1       57.980  65.676  38.684  0.00  0.00    +0.081 C 
ATOM     14  S   LIG    1       58.824  64.214  39.065  0.00  0.00    -0.117 S 
ATOM     15  C   LIG    1       58.403  63.290  37.611  0.00  0.00    +0.152 C 
ENDBRANCH   8   9
ENDBRANCH   5   6
TORSDOF 4
ENDMDL
MODEL 2
REMARK VINA RESULT:    -8.163      5.444      9.878
REMARK INTER + INTRA:         -10.765
REMARK INTER:                  -9.931
REMARK INTRA:                  -0.835
REMARK UNBOUND:                -0.693
REMARK  Name = ligand_1
REMARK                            x       y       z     vdW  Elec       q    Type
REMARK                         _______ _______ _______ _____ _____    ______ ____
ROOT
ATOM      2  N   LIG    1       51.224  62.641  37.410  0.00  0.00    -0.305 N 
ATOM      3  C   LIG    1       50.870  63.371  38.623  0.00  0.00    +0.108 C 
ATOM      4  C   LIG    1       49.683  62.674  39.297  0.00  0.00    +0.094 C 
ATOM      5  N   LIG    1       49.978  61.246  39.487  0.00  0.00    -0.270 NA
ATOM     18  C   LIG    1       50.348  60.523  38.277  0.00  0.00    +0.094 C 
ATOM     19  C   LIG    1       51.534  61.218  37.612  0.00  0.00    +0.108 C 
ENDROOT
BRANCH   2   1
ATOM      1  C   LIG    1       52.037  63.349  36.457  0.00  0.00    +0.051 A 
ATOM     20  C   LIG    1       51.491  64.005  35.330  0.00  0.00    +0.031 A 
ATOM     21  C   LIG    1       50.141  63.903  35.004  0.00  0.00    +0.003 A 
ATOM     22  C   LIG    1       49.629  64.555  33.886  0.00  0.00    +0.000 A 
ATOM     23  C   LIG    1       50.457  65.321  33.064  0.00  0.00    +0.002 A 
ATOM     24  C   LIG    1       51.808  65.436  33.375  0.00  0.00    +0.019 A 
ATOM     25  C   LIG    1       52.314  64.784  34.495  0.00  0.00    +0.082 A 
ATOM     26  N   LIG    1       53.627  64.906  34.755  0.00  0.00    -0.241 NA
ATOM     27  C   LIG    1       54.192  64.292  35.816  0.00  0.00    +0.154 A 
ATOM     32  C   LIG    1       53.413  63.519  36.691  0.00  0.00    +0.038 A 
BRANCH  27  28
ATOM     28  C   LIG    1       55.665  64.552  35.978  0.00  0.00    +0.435 C 
ATOM     29  F   LIG    1       56.333  63.559  35.428  0.00  0.00    -0.164 F 
ATOM     30  F   LIG    1       56.055  64.746  37.224  0.00  0.00    -0.164 F 
ATOM     31  F   LIG    1       55.930  65.639  35.286  0.00  0.00    -0.164 F 
ENDBRANCH  27  28
ENDBRANCH   2   1
BRANCH   5   6
ATOM      6  C   LIG    1       48.812  60.562  40.112  0.00  0.00    +0.077 C 
ATOM      7  C   LIG    1       48.532  59.182  39.496  0.00  0.00    +0.044 C 
ATOM      8  C   LIG    1       47.829  58.399  40.605  0.00  0.00    +0.150 C 
ATOM     16  N   LIG    1       48.309  59.013  41.838  0.00  0.00    -0.209 NA
ATOM     17  C   LIG    1       49.068  60.232  41.591  0.00  0.00    +0.105 C 
BRANCH   8   9
ATOM      9  C   LIG    1       48.072  56.903  40.533  0.00  0.00    +0.242 C 
ATOM     10  O   LIG    1       49.110  56.435  41.001  0.00  0.00    -0.273 OA
ATOM     11  N   LIG    1       47.099  56.156  39.994  0.00  0.00    -0.268 N 
ATOM     12  C   LIG    1       45.889  56.786  39.447  0.00  0.00    +0.106 C 
ATOM     13  C   LIG    1       44.905  55.747  38.899  0.00  0.00    +0.081 C 
ATOM     14  S   LIG    1       45.860  54.317  38.701  0.00  0.00    -0.117 S 
ATOM     15  C   LIG    1       47.129  54.692  39.881  0.00  0.00    +0.152 C 
ENDBRANCH   8   9
ENDBRANCH   5   6
TORSDOF 4
ENDMDL
MODEL 3
REMARK VINA RESULT:    -7.842      9.440     12.303
REMARK INTER + INTRA:         -10.369
REMARK INTER:                  -9.825
REMARK INTRA:                  -0.544
REMARK UNBOUND:                -0.693
REMARK  Name = ligand_1
REMARK                            x       y       z     vdW  Elec       q    Type
REMARK                         _______ _______ _______ _____ _____    ______ ____
ROOT
ATOM      2  N   LIG    1       56.817  55.463  34.113  0.00  0.00    -0.305 N 
ATOM      3  C   LIG    1       57.035  56.513  35.104  0.00  0.00    +0.108 C 
ATOM      4  C   LIG    1       56.004  56.362  36.227  0.00  0.00    +0.094 C 
ATOM      5  N   LIG    1       56.028  54.988  36.753  0.00  0.00    -0.270 NA
ATOM     18  C   LIG    1       55.827  53.940  35.760  0.00  0.00    +0.094 C 
ATOM     19  C   LIG    1       56.859  54.092  34.645  0.00  0.00    +0.108 C 
ENDROOT
BRANCH   2   1
ATOM      1  C   LIG    1       57.417  55.672  32.822  0.00  0.00    +0.051 A 
ATOM     20  C   LIG    1       56.887  55.110  31.638  0.00  0.00    +0.031 A 
ATOM     21  C   LIG    1       55.819  54.217  31.663  0.00  0.00    +0.003 A 
ATOM     22  C   LIG    1       55.319  53.675  30.483  0.00  0.00    +0.000 A 
ATOM     23  C   LIG    1       55.879  54.010  29.248  0.00  0.00    +0.002 A 
ATOM     24  C   LIG    1       56.945  54.902  29.204  0.00  0.00    +0.019 A 
ATOM     25  C   LIG    1       57.439  55.444  30.387  0.00  0.00    +0.082 A 
ATOM     26  N   LIG    1       58.479  56.291  30.305  0.00  0.00    -0.241 NA
ATOM     27  C   LIG    1       59.021  56.844  31.410  0.00  0.00    +0.154 A 
ATOM     32  C   LIG    1       58.496  56.562  32.681  0.00  0.00    +0.038 A 
BRANCH  27  28
ATOM     28  C   LIG    1       60.161  57.789  31.142  0.00  0.00    +0.435 C 
ATOM     29  F   LIG    1       60.262  57.972  29.841  0.00  0.00    -0.164 F 
ATOM     30  F   LIG    1       61.318  57.414  31.654  0.00  0.00    -0.164 F 
ATOM     31  F   LIG    1       59.823  58.942  31.679  0.00  0.00    -0.164 F 
ENDBRANCH  27  28
ENDBRANCH   2   1
BRANCH   5   6
ATOM      6  C   LIG    1       55.003  54.832  37.822  0.00  0.00    +0.077 C 
ATOM      7  C   LIG    1       55.589  54.986  39.234  0.00  0.00    +0.044 C 
ATOM      8  C   LIG    1       54.413  55.456  40.092  0.00  0.00    +0.150 C 
ATOM     16  N   LIG    1       53.532  56.137  39.149  0.00  0.00    -0.209 NA
ATOM     17  C   LIG    1       53.944  55.945  37.766  0.00  0.00    +0.105 C 
BRANCH   8   9
ATOM      9  C   LIG    1       54.832  56.317  41.268  0.00  0.00    +0.242 C 
ATOM     10  O   LIG    1       55.289  57.441  41.064  0.00  0.00    -0.273 OA
ATOM     11  N   LIG    1       54.632  55.810  42.492  0.00  0.00    -0.268 N 
ATOM     12  C   LIG    1       54.090  54.455  42.660  0.00  0.00    +0.106 C 
ATOM     13  C   LIG    1       53.927  54.086  44.139  0.00  0.00    +0.081 C 
ATOM     14  S   LIG    1       54.922  55.228  44.976  0.00  0.00    -0.117 S 
ATOM     15  C   LIG    1       54.927  56.509  43.750  0.00  0.00    +0.152 C 
ENDBRANCH   8   9
ENDBRANCH   5   6
TORSDOF 4
ENDMDL
MODEL 4
REMARK VINA RESULT:    -7.766      4.989      9.324
REMARK INTER + INTRA:         -10.276
REMARK INTER:                  -9.929
REMARK INTRA:                  -0.346
REMARK UNBOUND:                -0.693
REMARK  Name = ligand_1
REMARK                            x       y       z     vdW  Elec       q    Type
REMARK                         _______ _______ _______ _____ _____    ______ ____
ROOT
ATOM      2  N   LIG    1       51.216  62.431  37.236  0.00  0.00    -0.305 N 
ATOM      3  C   LIG    1       50.418  61.412  36.561  0.00  0.00    +0.108 C 
ATOM      4  C   LIG    1       49.910  60.406  37.601  0.00  0.00    +0.094 C 
ATOM      5  N   LIG    1       49.229  61.114  38.696  0.00  0.00    -0.270 NA
ATOM     18  C   LIG    1       50.022  62.142  39.358  0.00  0.00    +0.094 C 
ATOM     19  C   LIG    1       50.522  63.144  38.319  0.00  0.00    +0.108 C 
ENDROOT
BRANCH   2   1
ATOM      1  C   LIG    1       52.082  63.217  36.398  0.00  0.00    +0.051 A 
ATOM     20  C   LIG    1       51.599  63.981  35.311  0.00  0.00    +0.031 A 
ATOM     21  C   LIG    1       50.268  63.924  34.908  0.00  0.00    +0.003 A 
ATOM     22  C   LIG    1       49.819  64.684  33.831  0.00  0.00    +0.000 A 
ATOM     23  C   LIG    1       50.693  65.515  33.129  0.00  0.00    +0.002 A 
ATOM     24  C   LIG    1       52.027  65.586  33.520  0.00  0.00    +0.019 A 
ATOM     25  C   LIG    1       52.470  64.828  34.598  0.00  0.00    +0.082 A 
ATOM     26  N   LIG    1       53.768  64.911  34.936  0.00  0.00    -0.241 NA
ATOM     27  C   LIG    1       54.272  64.194  35.962  0.00  0.00    +0.154 A 
ATOM     32  C   LIG    1       53.445  63.350  36.719  0.00  0.00    +0.038 A 
BRANCH  27  28
ATOM     28  C   LIG    1       55.736  64.424  36.225  0.00  0.00    +0.435 C 
ATOM     29  F   LIG    1       56.423  63.442  35.677  0.00  0.00    -0.164 F 
ATOM     30  F   LIG    1       56.051  64.562  37.499  0.00  0.00    -0.164 F 
ATOM     31  F   LIG    1       56.059  65.533  35.595  0.00  0.00    -0.164 F 
ENDBRANCH  27  28
ENDBRANCH   2   1
BRANCH   5   6
ATOM      6  C   LIG    1       48.765  60.139  39.723  0.00  0.00    +0.077 C 
ATOM      7  C   LIG    1       49.528  58.807  39.666  0.00  0.00    +0.044 C 
ATOM      8  C   LIG    1       49.431  58.244  41.084  0.00  0.00    +0.150 C 
ATOM     16  N   LIG    1       49.272  59.424  41.927  0.00  0.00    -0.209 NA
ATOM     17  C   LIG    1       49.045  60.635  41.150  0.00  0.00    +0.105 C 
BRANCH   8   9
ATOM      9  C   LIG    1       50.613  57.374  41.469  0.00  0.00    +0.242 C 
ATOM     10  O   LIG    1       51.756  57.809  41.333  0.00  0.00    -0.273 OA
ATOM     11  N   LIG    1       50.334  56.171  41.991  0.00  0.00    -0.268 N 
ATOM     12  C   LIG    1       48.944  55.714  42.115  0.00  0.00    +0.106 C 
ATOM     13  C   LIG    1       48.857  54.323  42.752  0.00  0.00    +0.081 C 
ATOM     14  S   LIG    1       50.454  53.677  42.587  0.00  0.00    -0.117 S 
ATOM     15  C   LIG    1       51.338  55.210  42.467  0.00  0.00    +0.152 C 
ENDBRANCH   8   9
ENDBRANCH   5   6
TORSDOF 4
ENDMDL
MODEL 5
REMARK VINA RESULT:    -7.695      4.612      8.824
REMARK INTER + INTRA:         -10.188
REMARK INTER:                  -9.548
REMARK INTRA:                  -0.640
REMARK UNBOUND:                -0.693
REMARK  Name = ligand_1
REMARK                            x       y       z     vdW  Elec       q    Type
REMARK                         _______ _______ _______ _____ _____    ______ ____
ROOT
ATOM      2  N   LIG    1       50.677  63.032  36.572  0.00  0.00    -0.305 N 
ATOM      3  C   LIG    1       49.356  62.627  36.101  0.00  0.00    +0.108 C 
ATOM      4  C   LIG    1       48.875  61.433  36.931  0.00  0.00    +0.094 C 
ATOM      5  N   LIG    1       48.961  61.747  38.366  0.00  0.00    -0.270 NA
ATOM     18  C   LIG    1       50.276  62.167  38.830  0.00  0.00    +0.094 C 
ATOM     19  C   LIG    1       50.750  63.361  38.004  0.00  0.00    +0.108 C 
ENDROOT
BRANCH   2   1
ATOM      1  C   LIG    1       51.443  63.863  35.680  0.00  0.00    +0.051 A 
ATOM     20  C   LIG    1       52.855  63.814  35.621  0.00  0.00    +0.031 A 
ATOM     21  C   LIG    1       53.601  63.046  36.511  0.00  0.00    +0.003 A 
ATOM     22  C   LIG    1       54.990  63.020  36.434  0.00  0.00    +0.000 A 
ATOM     23  C   LIG    1       55.667  63.766  35.468  0.00  0.00    +0.002 A 
ATOM     24  C   LIG    1       54.938  64.537  34.569  0.00  0.00    +0.019 A 
ATOM     25  C   LIG    1       53.549  64.558  34.648  0.00  0.00    +0.082 A 
ATOM     26  N   LIG    1       52.880  65.327  33.772  0.00  0.00    -0.241 NA
ATOM     27  C   LIG    1       51.533  65.408  33.797  0.00  0.00    +0.154 A 
ATOM     32  C   LIG    1       50.790  64.672  34.734  0.00  0.00    +0.038 A 
BRANCH  27  28
ATOM     28  C   LIG    1       50.940  66.291  32.733  0.00  0.00    +0.435 C 
ATOM     29  F   LIG    1       51.094  67.549  33.093  0.00  0.00    -0.164 F 
ATOM     30  F   LIG    1       49.676  66.037  32.449  0.00  0.00    -0.164 F 
ATOM     31  F   LIG    1       51.657  66.099  31.647  0.00  0.00    -0.164 F 
ENDBRANCH  27  28
ENDBRANCH   2   1
BRANCH   5   6
ATOM      6  C   LIG    1       48.524  60.574  39.173  0.00  0.00    +0.077 C 
ATOM      7  C   LIG    1       49.540  59.422  39.145  0.00  0.00    +0.044 C 
ATOM      8  C   LIG    1       49.301  58.663  40.450  0.00  0.00    +0.150 C 
ATOM     16  N   LIG    1       48.753  59.668  41.354  0.00  0.00    -0.209 NA
ATOM     17  C   LIG    1       48.431  60.913  40.670  0.00  0.00    +0.105 C 
BRANCH   8   9
ATOM      9  C   LIG    1       50.544  57.975  40.983  0.00  0.00    +0.242 C 
ATOM     10  O   LIG    1       51.634  58.537  40.890  0.00  0.00    -0.273 OA
ATOM     11  N   LIG    1       50.370  56.787  41.579  0.00  0.00    -0.268 N 
ATOM     12  C   LIG    1       49.037  56.172  41.645  0.00  0.00    +0.106 C 
ATOM     13  C   LIG    1       49.067  54.829  42.384  0.00  0.00    +0.081 C 
ATOM     14  S   LIG    1       50.737  54.376  42.381  0.00  0.00    -0.117 S 
ATOM     15  C   LIG    1       51.440  55.994  42.198  0.00  0.00    +0.152 C 
ENDBRANCH   8   9
ENDBRANCH   5   6
TORSDOF 4
ENDMDL
MODEL 6
REMARK VINA RESULT:    -7.571      5.271      7.032
REMARK INTER + INTRA:         -10.034
REMARK INTER:                  -9.513
REMARK INTRA:                  -0.521
REMARK UNBOUND:                -0.693
REMARK  Name = ligand_1
REMARK                            x       y       z     vdW  Elec       q    Type
REMARK                         _______ _______ _______ _____ _____    ______ ____
ROOT
ATOM      2  N   LIG    1       53.558  57.949  38.774  0.00  0.00    -0.305 N 
ATOM      3  C   LIG    1       54.503  59.016  38.461  0.00  0.00    +0.108 C 
ATOM      4  C   LIG    1       54.041  59.736  37.190  0.00  0.00    +0.094 C 
ATOM      5  N   LIG    1       52.640  60.160  37.331  0.00  0.00    -0.270 NA
ATOM     18  C   LIG    1       51.700  59.096  37.660  0.00  0.00    +0.094 C 
ATOM     19  C   LIG    1       52.162  58.385  38.930  0.00  0.00    +0.108 C 
ENDROOT
BRANCH   2   1
ATOM      1  C   LIG    1       54.022  56.936  39.685  0.00  0.00    +0.051 A 
ATOM     20  C   LIG    1       54.833  55.855  39.269  0.00  0.00    +0.031 A 
ATOM     21  C   LIG    1       55.132  55.636  37.926  0.00  0.00    +0.003 A 
ATOM     22  C   LIG    1       55.929  54.561  37.544  0.00  0.00    +0.000 A 
ATOM     23  C   LIG    1       56.442  53.676  38.494  0.00  0.00    +0.002 A 
ATOM     24  C   LIG    1       56.155  53.881  39.840  0.00  0.00    +0.019 A 
ATOM     25  C   LIG    1       55.360  54.958  40.218  0.00  0.00    +0.082 A 
ATOM     26  N   LIG    1       55.092  55.115  41.525  0.00  0.00    -0.241 NA
ATOM     27  C   LIG    1       54.318  56.128  41.965  0.00  0.00    +0.154 A 
ATOM     32  C   LIG    1       53.782  57.062  41.064  0.00  0.00    +0.038 A 
BRANCH  27  28
ATOM     28  C   LIG    1       54.138  56.176  43.458  0.00  0.00    +0.435 C 
ATOM     29  F   LIG    1       54.941  57.096  43.952  0.00  0.00    -0.164 F 
ATOM     30  F   LIG    1       54.317  55.020  44.071  0.00  0.00    -0.164 F 
ATOM     31  F   LIG    1       52.902  56.573  43.673  0.00  0.00    -0.164 F 
ENDBRANCH  27  28
ENDBRANCH   2   1
BRANCH   5   6
ATOM      6  C   LIG    1       52.180  60.830  36.082  0.00  0.00    +0.077 C 
ATOM      7  C   LIG    1       51.516  62.190  36.347  0.00  0.00    +0.044 C 
ATOM      8  C   LIG    1       51.722  62.979  35.054  0.00  0.00    +0.150 C 
ATOM     16  N   LIG    1       52.927  62.401  34.470  0.00  0.00    -0.209 NA
ATOM     17  C   LIG    1       53.358  61.195  35.164  0.00  0.00    +0.105 C 
BRANCH   8   9
ATOM      9  C   LIG    1       51.807  64.479  35.271  0.00  0.00    +0.242 C 
ATOM     10  O   LIG    1       52.078  64.915  36.389  0.00  0.00    -0.273 OA
ATOM     11  N   LIG    1       51.623  65.257  34.196  0.00  0.00    -0.268 N 
ATOM     12  C   LIG    1       51.293  64.666  32.892  0.00  0.00    +0.106 C 
ATOM     13  C   LIG    1       51.145  65.735  31.804  0.00  0.00    +0.081 C 
ATOM     14  S   LIG    1       50.932  67.211  32.681  0.00  0.00    -0.117 S 
ATOM     15  C   LIG    1       51.715  66.723  34.195  0.00  0.00    +0.152 C 
ENDBRANCH   8   9
ENDBRANCH   5   6
TORSDOF 4
ENDMDL
MODEL 7
REMARK VINA RESULT:    -7.503      5.654      7.367
REMARK INTER + INTRA:          -9.951
REMARK INTER:                  -9.869
REMARK INTRA:                  -0.082
REMARK UNBOUND:                -0.693
REMARK  Name = ligand_1
REMARK                            x       y       z     vdW  Elec       q    Type
REMARK                         _______ _______ _______ _____ _____    ______ ____
ROOT
ATOM      2  N   LIG    1       54.628  58.391  38.301  0.00  0.00    -0.305 N 
ATOM      3  C   LIG    1       53.365  58.442  37.571  0.00  0.00    +0.108 C 
ATOM      4  C   LIG    1       53.106  59.883  37.121  0.00  0.00    +0.094 C 
ATOM      5  N   LIG    1       54.274  60.402  36.392  0.00  0.00    -0.270 NA
ATOM     18  C   LIG    1       55.537  60.334  37.116  0.00  0.00    +0.094 C 
ATOM     19  C   LIG    1       55.792  58.895  37.558  0.00  0.00    +0.108 C 
ENDROOT
BRANCH   2   1
ATOM      1  C   LIG    1       54.841  57.228  39.121  0.00  0.00    +0.051 A 
ATOM     20  C   LIG    1       55.549  56.094  38.662  0.00  0.00    +0.031 A 
ATOM     21  C   LIG    1       55.980  55.981  37.343  0.00  0.00    +0.003 A 
ATOM     22  C   LIG    1       56.671  54.852  36.916  0.00  0.00    +0.000 A 
ATOM     23  C   LIG    1       56.944  53.804  37.797  0.00  0.00    +0.002 A 
ATOM     24  C   LIG    1       56.523  53.900  39.119  0.00  0.00    +0.019 A 
ATOM     25  C   LIG    1       55.835  55.033  39.543  0.00  0.00    +0.082 A 
ATOM     26  N   LIG    1       55.432  55.083  40.824  0.00  0.00    -0.241 NA
ATOM     27  C   LIG    1       54.747  56.143  41.302  0.00  0.00    +0.154 A 
ATOM     32  C   LIG    1       54.453  57.236  40.473  0.00  0.00    +0.038 A 
BRANCH  27  28
ATOM     28  C   LIG    1       54.394  56.052  42.762  0.00  0.00    +0.435 C 
ATOM     29  F   LIG    1       54.837  54.904  43.234  0.00  0.00    -0.164 F 
ATOM     30  F   LIG    1       53.111  56.205  43.027  0.00  0.00    -0.164 F 
ATOM     31  F   LIG    1       55.061  57.012  43.367  0.00  0.00    -0.164 F 
ENDBRANCH  27  28
ENDBRANCH   2   1
BRANCH   5   6
ATOM      6  C   LIG    1       54.035  61.814  35.983  0.00  0.00    +0.077 C 
ATOM      7  C   LIG    1       53.392  61.930  34.592  0.00  0.00    +0.044 C 
ATOM      8  C   LIG    1       52.644  63.262  34.621  0.00  0.00    +0.150 C 
ATOM     16  N   LIG    1       52.337  63.470  36.033  0.00  0.00    -0.209 NA
ATOM     17  C   LIG    1       53.010  62.507  36.894  0.00  0.00    +0.105 C 
BRANCH   8   9
ATOM      9  C   LIG    1       51.422  63.287  33.722  0.00  0.00    +0.242 C 
ATOM     10  O   LIG    1       50.820  62.240  33.489  0.00  0.00    -0.273 OA
ATOM     11  N   LIG    1       51.035  64.484  33.259  0.00  0.00    -0.268 N 
ATOM     12  C   LIG    1       51.810  65.693  33.572  0.00  0.00    +0.106 C 
ATOM     13  C   LIG    1       51.179  66.947  32.958  0.00  0.00    +0.081 C 
ATOM     14  S   LIG    1       50.109  66.337  31.743  0.00  0.00    -0.117 S 
ATOM     15  C   LIG    1       49.854  64.718  32.418  0.00  0.00    +0.152 C 
ENDBRANCH   8   9
ENDBRANCH   5   6
TORSDOF 4
ENDMDL
MODEL 8
REMARK VINA RESULT:    -7.311      5.459      7.823
REMARK INTER + INTRA:          -9.714
REMARK INTER:                  -9.039
REMARK INTRA:                  -0.675
REMARK UNBOUND:                -0.693
REMARK  Name = ligand_1
REMARK                            x       y       z     vdW  Elec       q    Type
REMARK                         _______ _______ _______ _____ _____    ______ ____
ROOT
ATOM      2  N   LIG    1       52.334  62.420  35.322  0.00  0.00    -0.305 N 
ATOM      3  C   LIG    1       53.535  63.144  35.725  0.00  0.00    +0.108 C 
ATOM      4  C   LIG    1       54.273  62.332  36.795  0.00  0.00    +0.094 C 
ATOM      5  N   LIG    1       54.498  60.958  36.319  0.00  0.00    -0.270 NA
ATOM     18  C   LIG    1       53.300  60.242  35.901  0.00  0.00    +0.094 C 
ATOM     19  C   LIG    1       52.571  61.053  34.832  0.00  0.00    +0.108 C 
ENDROOT
BRANCH   2   1
ATOM      1  C   LIG    1       51.331  63.187  34.633  0.00  0.00    +0.051 A 
ATOM     20  C   LIG    1       49.948  62.918  34.760  0.00  0.00    +0.031 A 
ATOM     21  C   LIG    1       49.477  61.815  35.467  0.00  0.00    +0.003 A 
ATOM     22  C   LIG    1       48.110  61.571  35.573  0.00  0.00    +0.000 A 
ATOM     23  C   LIG    1       47.183  62.423  34.971  0.00  0.00    +0.002 A 
ATOM     24  C   LIG    1       47.636  63.531  34.263  0.00  0.00    +0.019 A 
ATOM     25  C   LIG    1       49.002  63.773  34.162  0.00  0.00    +0.082 A 
ATOM     26  N   LIG    1       49.402  64.845  33.458  0.00  0.00    -0.241 NA
ATOM     27  C   LIG    1       50.711  65.135  33.304  0.00  0.00    +0.154 A 
ATOM     32  C   LIG    1       51.695  64.327  33.896  0.00  0.00    +0.038 A 
BRANCH  27  28
ATOM     28  C   LIG    1       50.987  66.383  32.511  0.00  0.00    +0.435 C 
ATOM     29  F   LIG    1       51.779  66.077  31.503  0.00  0.00    -0.164 F 
ATOM     30  F   LIG    1       51.487  67.382  33.213  0.00  0.00    -0.164 F 
ATOM     31  F   LIG    1       49.834  66.766  32.006  0.00  0.00    -0.164 F 
ENDBRANCH  27  28
ENDBRANCH   2   1
BRANCH   5   6
ATOM      6  C   LIG    1       55.186  60.159  37.371  0.00  0.00    +0.077 C 
ATOM      7  C   LIG    1       54.224  59.252  38.153  0.00  0.00    +0.044 C 
ATOM      8  C   LIG    1       55.097  58.103  38.656  0.00  0.00    +0.150 C 
ATOM     16  N   LIG    1       56.188  58.032  37.690  0.00  0.00    -0.209 NA
ATOM     17  C   LIG    1       56.187  59.160  36.768  0.00  0.00    +0.105 C 
BRANCH   8   9
ATOM      9  C   LIG    1       54.341  56.797  38.819  0.00  0.00    +0.242 C 
ATOM     10  O   LIG    1       53.855  56.251  37.830  0.00  0.00    -0.273 OA
ATOM     11  N   LIG    1       54.286  56.280  40.054  0.00  0.00    -0.268 N 
ATOM     12  C   LIG    1       54.882  56.994  41.191  0.00  0.00    +0.106 C 
ATOM     13  C   LIG    1       54.719  56.215  42.501  0.00  0.00    +0.081 C 
ATOM     14  S   LIG    1       53.463  55.073  42.165  0.00  0.00    -0.117 S 
ATOM     15  C   LIG    1       53.644  55.006  40.403  0.00  0.00    +0.152 C 
ENDBRANCH   8   9
ENDBRANCH   5   6
TORSDOF 4
ENDMDL
MODEL 9
REMARK VINA RESULT:    -7.116      4.744      8.584
REMARK INTER + INTRA:          -9.474
REMARK INTER:                  -8.502
REMARK INTRA:                  -0.971
REMARK UNBOUND:                -0.693
REMARK  Name = ligand_1
REMARK                            x       y       z     vdW  Elec       q    Type
REMARK                         _______ _______ _______ _____ _____    ______ ____
ROOT
ATOM      2  N   LIG    1       48.644  61.789  36.649  0.00  0.00    -0.305 N 
ATOM      3  C   LIG    1       48.277  60.500  36.070  0.00  0.00    +0.108 C 
ATOM      4  C   LIG    1       48.295  59.435  37.171  0.00  0.00    +0.094 C 
ATOM      5  N   LIG    1       47.469  59.870  38.307  0.00  0.00    -0.270 NA
ATOM     18  C   LIG    1       47.826  61.164  38.874  0.00  0.00    +0.094 C 
ATOM     19  C   LIG    1       47.802  62.223  37.774  0.00  0.00    +0.108 C 
ENDROOT
BRANCH   2   1
ATOM      1  C   LIG    1       49.056  62.809  35.721  0.00  0.00    +0.051 A 
ATOM     20  C   LIG    1       50.319  63.439  35.797  0.00  0.00    +0.031 A 
ATOM     21  C   LIG    1       51.197  63.199  36.851  0.00  0.00    +0.003 A 
ATOM     22  C   LIG    1       52.433  63.837  36.904  0.00  0.00    +0.000 A 
ATOM     23  C   LIG    1       52.819  64.735  35.907  0.00  0.00    +0.002 A 
ATOM     24  C   LIG    1       51.955  64.985  34.846  0.00  0.00    +0.019 A 
ATOM     25  C   LIG    1       50.722  64.343  34.795  0.00  0.00    +0.082 A 
ATOM     26  N   LIG    1       49.908  64.621  33.762  0.00  0.00    -0.241 NA
ATOM     27  C   LIG    1       48.692  64.048  33.654  0.00  0.00    +0.154 A 
ATOM     32  C   LIG    1       48.249  63.125  34.615  0.00  0.00    +0.038 A 
BRANCH  27  28
ATOM     28  C   LIG    1       47.919  64.447  32.426  0.00  0.00    +0.435 C 
ATOM     29  F   LIG    1       47.676  63.368  31.710  0.00  0.00    -0.164 F 
ATOM     30  F   LIG    1       48.498  65.378  31.691  0.00  0.00    -0.164 F 
ATOM     31  F   LIG    1       46.762  64.911  32.848  0.00  0.00    -0.164 F 
ENDBRANCH  27  28
ENDBRANCH   2   1
BRANCH   5   6
ATOM      6  C   LIG    1       47.513  58.849  39.391  0.00  0.00    +0.077 C 
ATOM      7  C   LIG    1       48.857  58.107  39.455  0.00  0.00    +0.044 C 
ATOM      8  C   LIG    1       48.978  57.648  40.908  0.00  0.00    +0.150 C 
ATOM     16  N   LIG    1       48.180  58.614  41.656  0.00  0.00    -0.209 NA
ATOM     17  C   LIG    1       47.408  59.489  40.784  0.00  0.00    +0.105 C 
BRANCH   8   9
ATOM      9  C   LIG    1       50.413  57.540  41.389  0.00  0.00    +0.242 C 
ATOM     10  O   LIG    1       51.142  58.530  41.347  0.00  0.00    -0.273 OA
ATOM     11  N   LIG    1       50.797  56.356  41.885  0.00  0.00    -0.268 N 
ATOM     12  C   LIG    1       49.874  55.213  41.895  0.00  0.00    +0.106 C 
ATOM     13  C   LIG    1       50.513  53.970  42.521  0.00  0.00    +0.081 C 
ATOM     14  S   LIG    1       52.212  54.300  42.488  0.00  0.00    -0.117 S 
ATOM     15  C   LIG    1       52.127  56.070  42.441  0.00  0.00    +0.152 C 
ENDBRANCH   8   9
ENDBRANCH   5   6
TORSDOF 4
ENDMDL
