MODEL 7
REMARK VINA RESULT:    -7.311      5.459      7.823
REMARK INTER + INTRA:          -9.714
REMARK INTER:                  -9.039
REMARK INTRA:                  -0.675
REMARK UNBOUND:                -0.693
REMARK  Name = ligand_1
REMARK                            x       y       z     vdW  Elec       q    Type
REMARK                         _______ _______ _______ _____ _____    ______ ____
ROOT
ATOM      2  N   LIG    1       52.334  62.420  35.322  0.00  0.00    -0.305 N 
ATOM      3  C   LIG    1       53.535  63.144  35.725  0.00  0.00    +0.108 C 
ATOM      4  C   LIG    1       54.273  62.332  36.795  0.00  0.00    +0.094 C 
ATOM      5  N   LIG    1       54.498  60.958  36.319  0.00  0.00    -0.270 NA
ATOM     18  C   LIG    1       53.300  60.242  35.901  0.00  0.00    +0.094 C 
ATOM     19  C   LIG    1       52.571  61.053  34.832  0.00  0.00    +0.108 C 
ENDROOT
BRANCH   2   1
ATOM      1  C   LIG    1       51.331  63.187  34.633  0.00  0.00    +0.051 A 
ATOM     20  C   LIG    1       49.948  62.918  34.760  0.00  0.00    +0.031 A 
ATOM     21  C   LIG    1       49.477  61.815  35.467  0.00  0.00    +0.003 A 
ATOM     22  C   LIG    1       48.110  61.571  35.573  0.00  0.00    +0.000 A 
ATOM     23  C   LIG    1       47.183  62.423  34.971  0.00  0.00    +0.002 A 
ATOM     24  C   LIG    1       47.636  63.531  34.263  0.00  0.00    +0.019 A 
ATOM     25  C   LIG    1       49.002  63.773  34.162  0.00  0.00    +0.082 A 
ATOM     26  N   LIG    1       49.402  64.845  33.458  0.00  0.00    -0.241 NA
ATOM     27  C   LIG    1       50.711  65.135  33.304  0.00  0.00    +0.154 A 
ATOM     32  C   LIG    1       51.695  64.327  33.896  0.00  0.00    +0.038 A 
BRANCH  27  28
ATOM     28  C   LIG    1       50.987  66.383  32.511  0.00  0.00    +0.435 C 
ATOM     29  F   LIG    1       51.779  66.077  31.503  0.00  0.00    -0.164 F 
ATOM     30  F   LIG    1       51.487  67.382  33.213  0.00  0.00    -0.164 F 
ATOM     31  F   LIG    1       49.834  66.766  32.006  0.00  0.00    -0.164 F 
ENDBRANCH  27  28
ENDBRANCH   2   1
BRANCH   5   6
ATOM      6  C   LIG    1       55.186  60.159  37.371  0.00  0.00    +0.077 C 
ATOM      7  C   LIG    1       54.224  59.252  38.153  0.00  0.00    +0.044 C 
ATOM      8  C   LIG    1       55.097  58.103  38.656  0.00  0.00    +0.150 C 
ATOM     16  N   LIG    1       56.188  58.032  37.690  0.00  0.00    -0.209 NA
ATOM     17  C   LIG    1       56.187  59.160  36.768  0.00  0.00    +0.105 C 
BRANCH   8   9
ATOM      9  C   LIG    1       54.341  56.797  38.819  0.00  0.00    +0.242 C 
ATOM     10  O   LIG    1       53.855  56.251  37.830  0.00  0.00    -0.273 OA
ATOM     11  N   LIG    1       54.286  56.280  40.054  0.00  0.00    -0.268 N 
ATOM     12  C   LIG    1       54.882  56.994  41.191  0.00  0.00    +0.106 C 
ATOM     13  C   LIG    1       54.719  56.215  42.501  0.00  0.00    +0.081 C 
ATOM     14  S   LIG    1       53.463  55.073  42.165  0.00  0.00    -0.117 S 
ATOM     15  C   LIG    1       53.644  55.006  40.403  0.00  0.00    +0.152 C 
ENDBRANCH   8   9
ENDBRANCH   5   6
TORSDOF 4
ENDMDL
