MODEL 3
REMARK VINA RESULT:    -7.842      9.440     12.303
REMARK INTER + INTRA:         -10.369
REMARK INTER:                  -9.825
REMARK INTRA:                  -0.544
REMARK UNBOUND:                -0.693
REMARK  Name = ligand_1
REMARK                            x       y       z     vdW  Elec       q    Type
REMARK                         _______ _______ _______ _____ _____    ______ ____
ROOT
ATOM      2  N   LIG    1       56.817  55.463  34.113  0.00  0.00    -0.305 N 
ATOM      3  C   LIG    1       57.035  56.513  35.104  0.00  0.00    +0.108 C 
ATOM      4  C   LIG    1       56.004  56.362  36.227  0.00  0.00    +0.094 C 
ATOM      5  N   LIG    1       56.028  54.988  36.753  0.00  0.00    -0.270 NA
ATOM     18  C   LIG    1       55.827  53.940  35.760  0.00  0.00    +0.094 C 
ATOM     19  C   LIG    1       56.859  54.092  34.645  0.00  0.00    +0.108 C 
ENDROOT
BRANCH   2   1
ATOM      1  C   LIG    1       57.417  55.672  32.822  0.00  0.00    +0.051 A 
ATOM     20  C   LIG    1       56.887  55.110  31.638  0.00  0.00    +0.031 A 
ATOM     21  C   LIG    1       55.819  54.217  31.663  0.00  0.00    +0.003 A 
ATOM     22  C   LIG    1       55.319  53.675  30.483  0.00  0.00    +0.000 A 
ATOM     23  C   LIG    1       55.879  54.010  29.248  0.00  0.00    +0.002 A 
ATOM     24  C   LIG    1       56.945  54.902  29.204  0.00  0.00    +0.019 A 
ATOM     25  C   LIG    1       57.439  55.444  30.387  0.00  0.00    +0.082 A 
ATOM     26  N   LIG    1       58.479  56.291  30.305  0.00  0.00    -0.241 NA
ATOM     27  C   LIG    1       59.021  56.844  31.410  0.00  0.00    +0.154 A 
ATOM     32  C   LIG    1       58.496  56.562  32.681  0.00  0.00    +0.038 A 
BRANCH  27  28
ATOM     28  C   LIG    1       60.161  57.789  31.142  0.00  0.00    +0.435 C 
ATOM     29  F   LIG    1       60.262  57.972  29.841  0.00  0.00    -0.164 F 
ATOM     30  F   LIG    1       61.318  57.414  31.654  0.00  0.00    -0.164 F 
ATOM     31  F   LIG    1       59.823  58.942  31.679  0.00  0.00    -0.164 F 
ENDBRANCH  27  28
ENDBRANCH   2   1
BRANCH   5   6
ATOM      6  C   LIG    1       55.003  54.832  37.822  0.00  0.00    +0.077 C 
ATOM      7  C   LIG    1       55.589  54.986  39.234  0.00  0.00    +0.044 C 
ATOM      8  C   LIG    1       54.413  55.456  40.092  0.00  0.00    +0.150 C 
ATOM     16  N   LIG    1       53.532  56.137  39.149  0.00  0.00    -0.209 NA
ATOM     17  C   LIG    1       53.944  55.945  37.766  0.00  0.00    +0.105 C 
BRANCH   8   9
ATOM      9  C   LIG    1       54.832  56.317  41.268  0.00  0.00    +0.242 C 
ATOM     10  O   LIG    1       55.289  57.441  41.064  0.00  0.00    -0.273 OA
ATOM     11  N   LIG    1       54.632  55.810  42.492  0.00  0.00    -0.268 N 
ATOM     12  C   LIG    1       54.090  54.455  42.660  0.00  0.00    +0.106 C 
ATOM     13  C   LIG    1       53.927  54.086  44.139  0.00  0.00    +0.081 C 
ATOM     14  S   LIG    1       54.922  55.228  44.976  0.00  0.00    -0.117 S 
ATOM     15  C   LIG    1       54.927  56.509  43.750  0.00  0.00    +0.152 C 
ENDBRANCH   8   9
ENDBRANCH   5   6
TORSDOF 4
ENDMDL
