MODEL 7
REMARK VINA RESULT:    -7.503      5.654      7.367
REMARK INTER + INTRA:          -9.951
REMARK INTER:                  -9.869
REMARK INTRA:                  -0.082
REMARK UNBOUND:                -0.693
REMARK  Name = ligand_1
REMARK                            x       y       z     vdW  Elec       q    Type
REMARK                         _______ _______ _______ _____ _____    ______ ____
ROOT
ATOM      2  N   LIG    1       54.628  58.391  38.301  0.00  0.00    -0.305 N 
ATOM      3  C   LIG    1       53.365  58.442  37.571  0.00  0.00    +0.108 C 
ATOM      4  C   LIG    1       53.106  59.883  37.121  0.00  0.00    +0.094 C 
ATOM      5  N   LIG    1       54.274  60.402  36.392  0.00  0.00    -0.270 NA
ATOM     18  C   LIG    1       55.537  60.334  37.116  0.00  0.00    +0.094 C 
ATOM     19  C   LIG    1       55.792  58.895  37.558  0.00  0.00    +0.108 C 
ENDROOT
BRANCH   2   1
ATOM      1  C   LIG    1       54.841  57.228  39.121  0.00  0.00    +0.051 A 
ATOM     20  C   LIG    1       55.549  56.094  38.662  0.00  0.00    +0.031 A 
ATOM     21  C   LIG    1       55.980  55.981  37.343  0.00  0.00    +0.003 A 
ATOM     22  C   LIG    1       56.671  54.852  36.916  0.00  0.00    +0.000 A 
ATOM     23  C   LIG    1       56.944  53.804  37.797  0.00  0.00    +0.002 A 
ATOM     24  C   LIG    1       56.523  53.900  39.119  0.00  0.00    +0.019 A 
ATOM     25  C   LIG    1       55.835  55.033  39.543  0.00  0.00    +0.082 A 
ATOM     26  N   LIG    1       55.432  55.083  40.824  0.00  0.00    -0.241 NA
ATOM     27  C   LIG    1       54.747  56.143  41.302  0.00  0.00    +0.154 A 
ATOM     32  C   LIG    1       54.453  57.236  40.473  0.00  0.00    +0.038 A 
BRANCH  27  28
ATOM     28  C   LIG    1       54.394  56.052  42.762  0.00  0.00    +0.435 C 
ATOM     29  F   LIG    1       54.837  54.904  43.234  0.00  0.00    -0.164 F 
ATOM     30  F   LIG    1       53.111  56.205  43.027  0.00  0.00    -0.164 F 
ATOM     31  F   LIG    1       55.061  57.012  43.367  0.00  0.00    -0.164 F 
ENDBRANCH  27  28
ENDBRANCH   2   1
BRANCH   5   6
ATOM      6  C   LIG    1       54.035  61.814  35.983  0.00  0.00    +0.077 C 
ATOM      7  C   LIG    1       53.392  61.930  34.592  0.00  0.00    +0.044 C 
ATOM      8  C   LIG    1       52.644  63.262  34.621  0.00  0.00    +0.150 C 
ATOM     16  N   LIG    1       52.337  63.470  36.033  0.00  0.00    -0.209 NA
ATOM     17  C   LIG    1       53.010  62.507  36.894  0.00  0.00    +0.105 C 
BRANCH   8   9
ATOM      9  C   LIG    1       51.422  63.287  33.722  0.00  0.00    +0.242 C 
ATOM     10  O   LIG    1       50.820  62.240  33.489  0.00  0.00    -0.273 OA
ATOM     11  N   LIG    1       51.035  64.484  33.259  0.00  0.00    -0.268 N 
ATOM     12  C   LIG    1       51.810  65.693  33.572  0.00  0.00    +0.106 C 
ATOM     13  C   LIG    1       51.179  66.947  32.958  0.00  0.00    +0.081 C 
ATOM     14  S   LIG    1       50.109  66.337  31.743  0.00  0.00    -0.117 S 
ATOM     15  C   LIG    1       49.854  64.718  32.418  0.00  0.00    +0.152 C 
ENDBRANCH   8   9
ENDBRANCH   5   6
TORSDOF 4
ENDMDL
