MODEL 3
REMARK VINA RESULT:    -6.481      4.281      5.573
REMARK INTER + INTRA:          -8.832
REMARK INTER:                  -7.893
REMARK INTRA:                  -0.939
REMARK UNBOUND:                -0.835
REMARK  Name = ligand_1
REMARK                            x       y       z     vdW  Elec       q    Type
REMARK                         _______ _______ _______ _____ _____    ______ ____
ROOT
ATOM      2  N   LIG    1       52.272  60.653  36.148  0.00  0.00    -0.305 N 
ATOM      3  C   LIG    1       52.504  59.490  35.297  0.00  0.00    +0.108 C 
ATOM      4  C   LIG    1       52.717  58.258  36.184  0.00  0.00    +0.094 C 
ATOM      5  N   LIG    1       51.606  58.126  37.140  0.00  0.00    -0.270 NA
ATOM     18  C   LIG    1       51.366  59.294  37.976  0.00  0.00    +0.094 C 
ATOM     19  C   LIG    1       51.149  60.518  37.089  0.00  0.00    +0.108 C 
ENDROOT
BRANCH   2   1
ATOM      1  C   LIG    1       52.439  61.939  35.525  0.00  0.00    +0.051 A 
ATOM     20  C   LIG    1       53.625  62.700  35.658  0.00  0.00    +0.031 A 
ATOM     21  C   LIG    1       54.659  62.305  36.502  0.00  0.00    +0.003 A 
ATOM     22  C   LIG    1       55.813  63.074  36.618  0.00  0.00    +0.000 A 
ATOM     23  C   LIG    1       55.958  64.260  35.896  0.00  0.00    +0.002 A 
ATOM     24  C   LIG    1       54.936  64.668  35.045  0.00  0.00    +0.019 A 
ATOM     25  C   LIG    1       53.785  63.894  34.931  0.00  0.00    +0.082 A 
ATOM     26  N   LIG    1       52.813  64.329  34.111  0.00  0.00    -0.241 NA
ATOM     27  C   LIG    1       51.663  63.639  33.959  0.00  0.00    +0.154 A 
ATOM     32  C   LIG    1       51.459  62.431  34.646  0.00  0.00    +0.038 A 
BRANCH  27  28
ATOM     28  C   LIG    1       50.692  64.249  32.986  0.00  0.00    +0.435 C 
ATOM     29  F   LIG    1       50.135  65.303  33.548  0.00  0.00    -0.164 F 
ATOM     30  F   LIG    1       49.771  63.418  32.534  0.00  0.00    -0.164 F 
ATOM     31  F   LIG    1       51.404  64.675  31.965  0.00  0.00    -0.164 F 
ENDBRANCH  27  28
ENDBRANCH   2   1
BRANCH   5   6
ATOM      6  C   LIG    1       51.830  56.948  38.023  0.00  0.00    +0.077 C 
ATOM      7  C   LIG    1       52.688  57.281  39.253  0.00  0.00    +0.044 C 
ATOM      8  C   LIG    1       52.274  56.252  40.305  0.00  0.00    +0.150 C 
ATOM     16  N   LIG    1       50.907  55.897  39.939  0.00  0.00    -0.209 NA
ATOM     17  C   LIG    1       50.519  56.442  38.645  0.00  0.00    +0.105 C 
BRANCH   8   9
ATOM      9  C   LIG    1       52.413  56.756  41.729  0.00  0.00    +0.242 C 
ATOM     10  O   LIG    1       51.727  57.707  42.105  0.00  0.00    -0.273 OA
ATOM     11  N   LIG    1       53.261  56.092  42.526  0.00  0.00    -0.268 N 
ATOM     12  C   LIG    1       54.054  54.971  42.005  0.00  0.00    +0.106 C 
ATOM     13  C   LIG    1       54.940  54.349  43.090  0.00  0.00    +0.081 C 
ATOM     14  S   LIG    1       55.002  55.551  44.333  0.00  0.00    -0.117 S 
ATOM     15  C   LIG    1       53.494  56.398  43.944  0.00  0.00    +0.152 C 
ENDBRANCH   8   9
ENDBRANCH   5   6
TORSDOF 4
ENDMDL
