MODEL 9
REMARK VINA RESULT:    -5.505      5.135      6.662
REMARK INTER + INTRA:          -7.506
REMARK INTER:                  -7.037
REMARK INTRA:                  -0.469
REMARK UNBOUND:                -0.714
REMARK  Name = ligand_1
REMARK                            x       y       z     vdW  Elec       q    Type
REMARK                         _______ _______ _______ _____ _____    ______ ____
ROOT
ATOM      2  N   LIG    1       50.441  58.507  39.357  0.00  0.00    -0.305 N 
ATOM      3  C   LIG    1       50.493  59.882  39.844  0.00  0.00    +0.108 C 
ATOM      4  C   LIG    1       50.936  60.801  38.701  0.00  0.00    +0.094 C 
ATOM      5  N   LIG    1       50.085  60.584  37.521  0.00  0.00    -0.270 NA
ATOM     18  C   LIG    1       50.022  59.208  37.046  0.00  0.00    +0.094 C 
ATOM     19  C   LIG    1       49.575  58.297  38.187  0.00  0.00    +0.108 C 
ENDROOT
BRANCH   2   1
ATOM      1  C   LIG    1       50.429  57.477  40.361  0.00  0.00    +0.051 A 
ATOM     20  C   LIG    1       51.612  56.985  40.960  0.00  0.00    +0.031 A 
ATOM     21  C   LIG    1       52.874  57.381  40.526  0.00  0.00    +0.003 A 
ATOM     22  C   LIG    1       54.023  56.878  41.129  0.00  0.00    +0.000 A 
ATOM     23  C   LIG    1       53.936  55.962  42.179  0.00  0.00    +0.002 A 
ATOM     24  C   LIG    1       52.683  55.556  42.628  0.00  0.00    +0.019 A 
ATOM     25  C   LIG    1       51.538  56.064  42.023  0.00  0.00    +0.082 A 
ATOM     26  N   LIG    1       50.346  55.638  42.473  0.00  0.00    -0.241 NA
ATOM     27  C   LIG    1       49.193  56.076  41.927  0.00  0.00    +0.154 A 
ATOM     32  C   LIG    1       49.208  57.009  40.878  0.00  0.00    +0.038 A 
BRANCH  27  28
ATOM     28  C   LIG    1       47.948  55.521  42.565  0.00  0.00    +0.435 C 
ATOM     29  F   LIG    1       47.084  55.221  41.616  0.00  0.00    -0.164 F 
ATOM     30  F   LIG    1       47.397  56.307  43.470  0.00  0.00    -0.164 F 
ATOM     31  F   LIG    1       48.299  54.395  43.150  0.00  0.00    -0.164 F 
ENDBRANCH  27  28
ENDBRANCH   2   1
BRANCH   5   6
ATOM      6  C   LIG    1       50.536  61.454  36.399  0.00  0.00    +0.077 C 
ATOM      7  C   LIG    1       49.747  61.211  35.103  0.00  0.00    +0.044 C 
ATOM      8  C   LIG    1       49.842  62.531  34.339  0.00  0.00    +0.150 C 
ATOM     16  N   LIG    1       50.029  63.535  35.380  0.00  0.00    -0.209 NA
ATOM     17  C   LIG    1       50.275  62.941  36.687  0.00  0.00    +0.105 C 
BRANCH   8   9
ATOM      9  C   LIG    1       48.646  62.796  33.443  0.00  0.00    +0.242 C 
ATOM     10  O   LIG    1       47.784  63.596  33.805  0.00  0.00    -0.273 OA
ATOM     11  N   LIG    1       48.621  62.162  32.263  0.00  0.00    -0.268 N 
ATOM     12  C   LIG    1       49.682  61.212  31.901  0.00  0.00    +0.106 C 
ATOM     13  C   LIG    1       49.464  60.620  30.505  0.00  0.00    +0.081 C 
ATOM     14  S   LIG    1       47.799  60.941  30.159  0.00  0.00    -0.117 S 
ATOM     15  C   LIG    1       47.576  62.326  31.243  0.00  0.00    +0.152 C 
ENDBRANCH   8   9
ENDBRANCH   5   6
TORSDOF 4
ENDMDL
