REMARK  Name = ligand_1
REMARK                            x       y       z     vdW  Elec       q    Type
REMARK                         _______ _______ _______ _____ _____    ______ ____
ROOT
ATOM      2  N   LIG    1       49.555  63.747  34.418  0.00  0.00    -0.305 N 
ATOM      3  C   LIG    1       50.338  63.417  33.231  0.00  0.00    +0.108 C 
ATOM      4  C   LIG    1       51.653  64.203  33.266  0.00  0.00    +0.094 C 
ATOM      5  N   LIG    1       52.337  63.985  34.550  0.00  0.00    -0.270 NA
ATOM     18  C   LIG    1       51.548  64.299  35.734  0.00  0.00    +0.094 C 
ATOM     19  C   LIG    1       50.241  63.510  35.697  0.00  0.00    +0.108 C 
ENDROOT
BRANCH   2   1
ATOM      1  C   LIG    1       48.155  63.419  34.367  0.00  0.00    +0.051 A 
ATOM     20  C   LIG    1       47.281  63.966  33.399  0.00  0.00    +0.031 A 
ATOM     21  C   LIG    1       47.697  64.953  32.509  0.00  0.00    +0.003 A 
ATOM     22  C   LIG    1       46.815  65.478  31.569  0.00  0.00    +0.000 A 
ATOM     23  C   LIG    1       45.494  65.032  31.500  0.00  0.00    +0.002 A 
ATOM     24  C   LIG    1       45.062  64.045  32.380  0.00  0.00    +0.019 A 
ATOM     25  C   LIG    1       45.948  63.521  33.316  0.00  0.00    +0.082 A 
ATOM     26  N   LIG    1       45.490  62.580  34.159  0.00  0.00    -0.241 NA
ATOM     27  C   LIG    1       46.287  62.036  35.102  0.00  0.00    +0.154 A 
ATOM     32  C   LIG    1       47.630  62.429  35.216  0.00  0.00    +0.038 A 
BRANCH  27  28
ATOM     28  C   LIG    1       45.627  60.979  35.945  0.00  0.00    +0.435 C 
ATOM     29  F   LIG    1       44.503  61.466  36.431  0.00  0.00    -0.164 F 
ATOM     30  F   LIG    1       46.384  60.494  36.911  0.00  0.00    -0.164 F 
ATOM     31  F   LIG    1       45.312  59.995  35.130  0.00  0.00    -0.164 F 
ENDBRANCH  27  28
ENDBRANCH   2   1
BRANCH   5   6
ATOM      6  C   LIG    1       53.599  64.775  34.597  0.00  0.00    +0.077 C 
ATOM      7  C   LIG    1       54.497  64.391  35.783  0.00  0.00    +0.044 C 
ATOM      8  C   LIG    1       55.912  64.751  35.330  0.00  0.00    +0.150 C 
ATOM     16  N   LIG    1       55.856  64.660  33.875  0.00  0.00    -0.209 NA
ATOM     17  C   LIG    1       54.496  64.492  33.381  0.00  0.00    +0.105 C 
BRANCH   8   9
ATOM      9  C   LIG    1       56.985  63.879  35.955  0.00  0.00    +0.242 C 
ATOM     10  O   LIG    1       57.364  62.868  35.365  0.00  0.00    -0.273 OA
ATOM     11  N   LIG    1       57.502  64.296  37.119  0.00  0.00    -0.268 N 
ATOM     12  C   LIG    1       56.993  65.510  37.771  0.00  0.00    +0.106 C 
ATOM     13  C   LIG    1       57.737  65.809  39.077  0.00  0.00    +0.081 C 
ATOM     14  S   LIG    1       58.512  64.315  39.479  0.00  0.00    -0.117 S 
ATOM     15  C   LIG    1       58.579  63.616  37.851  0.00  0.00    +0.152 C 
ENDBRANCH   8   9
ENDBRANCH   5   6
TORSDOF 4
