MODEL 1
REMARK VINA RESULT:    -8.504      0.000      0.000
REMARK INTER + INTRA:         -11.151
REMARK INTER:                 -10.492
REMARK INTRA:                  -0.659
REMARK UNBOUND:                -0.659
REMARK  Name = ligand_1
REMARK                            x       y       z     vdW  Elec       q    Type
REMARK                         _______ _______ _______ _____ _____    ______ ____
ROOT
ATOM      2  N   LIG    1       50.256  61.935  38.314  0.00  0.00    -0.305 N 
ATOM      3  C   LIG    1       50.414  63.298  38.813  0.00  0.00    +0.108 C 
ATOM      4  C   LIG    1       51.638  63.935  38.145  0.00  0.00    +0.094 C 
ATOM      5  N   LIG    1       51.536  63.809  36.682  0.00  0.00    -0.270 NA
ATOM     18  C   LIG    1       51.361  62.449  36.188  0.00  0.00    +0.094 C 
ATOM     19  C   LIG    1       50.139  61.821  36.853  0.00  0.00    +0.108 C 
ENDROOT
BRANCH   2   1
ATOM      1  C   LIG    1       49.419  61.065  39.098  0.00  0.00    +0.051 A 
ATOM     20  C   LIG    1       49.935  59.969  39.827  0.00  0.00    +0.031 A 
ATOM     21  C   LIG    1       51.272  59.589  39.734  0.00  0.00    +0.003 A 
ATOM     22  C   LIG    1       51.753  58.503  40.460  0.00  0.00    +0.000 A 
ATOM     23  C   LIG    1       50.907  57.768  41.292  0.00  0.00    +0.002 A 
ATOM     24  C   LIG    1       49.570  58.135  41.399  0.00  0.00    +0.019 A 
ATOM     25  C   LIG    1       49.094  59.223  40.674  0.00  0.00    +0.082 A 
ATOM     26  N   LIG    1       47.793  59.537  40.791  0.00  0.00    -0.241 NA
ATOM     27  C   LIG    1       47.257  60.570  40.109  0.00  0.00    +0.154 A 
ATOM     32  C   LIG    1       48.055  61.360  39.266  0.00  0.00    +0.038 A 
BRANCH  27  28
ATOM     28  C   LIG    1       45.794  60.804  40.373  0.00  0.00    +0.435 C 
ATOM     29  F   LIG    1       45.612  62.079  40.649  0.00  0.00    -0.164 F 
ATOM     30  F   LIG    1       45.278  60.042  41.319  0.00  0.00    -0.164 F 
ATOM     31  F   LIG    1       45.166  60.549  39.245  0.00  0.00    -0.164 F 
ENDBRANCH  27  28
ENDBRANCH   2   1
BRANCH   5   6
ATOM      6  C   LIG    1       52.741  64.398  36.034  0.00  0.00    +0.077 C 
ATOM      7  C   LIG    1       54.021  64.192  36.859  0.00  0.00    +0.044 C 
ATOM      8  C   LIG    1       55.153  64.225  35.832  0.00  0.00    +0.150 C 
ATOM     16  N   LIG    1       54.523  63.790  34.591  0.00  0.00    -0.209 NA
ATOM     17  C   LIG    1       53.073  63.702  34.705  0.00  0.00    +0.105 C 
BRANCH   8   9
ATOM      9  C   LIG    1       56.354  63.389  36.233  0.00  0.00    +0.242 C 
ATOM     10  O   LIG    1       56.540  62.298  35.694  0.00  0.00    -0.273 OA
ATOM     11  N   LIG    1       57.187  63.920  37.138  0.00  0.00    -0.268 N 
ATOM     12  C   LIG    1       56.896  65.225  37.747  0.00  0.00    +0.106 C 
ATOM     13  C   LIG    1       57.987  65.646  38.738  0.00  0.00    +0.081 C 
ATOM     14  S   LIG    1       58.834  64.179  39.090  0.00  0.00    -0.117 S 
ATOM     15  C   LIG    1       58.424  63.287  37.614  0.00  0.00    +0.152 C 
ENDBRANCH   8   9
ENDBRANCH   5   6
TORSDOF 4
ENDMDL
MODEL 2
REMARK VINA RESULT:    -8.124      5.454      9.877
REMARK INTER + INTRA:         -10.683
REMARK INTER:                  -9.852
REMARK INTRA:                  -0.831
REMARK UNBOUND:                -0.659
REMARK  Name = ligand_1
REMARK                            x       y       z     vdW  Elec       q    Type
REMARK                         _______ _______ _______ _____ _____    ______ ____
ROOT
ATOM      2  N   LIG    1       51.184  62.610  37.415  0.00  0.00    -0.305 N 
ATOM      3  C   LIG    1       50.812  63.325  38.633  0.00  0.00    +0.108 C 
ATOM      4  C   LIG    1       49.631  62.605  39.293  0.00  0.00    +0.094 C 
ATOM      5  N   LIG    1       49.946  61.180  39.473  0.00  0.00    -0.270 NA
ATOM     18  C   LIG    1       50.333  60.472  38.260  0.00  0.00    +0.094 C 
ATOM     19  C   LIG    1       51.513  61.190  37.608  0.00  0.00    +0.108 C 
ENDROOT
BRANCH   2   1
ATOM      1  C   LIG    1       51.993  63.338  36.474  0.00  0.00    +0.051 A 
ATOM     20  C   LIG    1       51.442  64.005  35.355  0.00  0.00    +0.031 A 
ATOM     21  C   LIG    1       50.093  63.897  35.027  0.00  0.00    +0.003 A 
ATOM     22  C   LIG    1       49.578  64.561  33.917  0.00  0.00    +0.000 A 
ATOM     23  C   LIG    1       50.401  65.345  33.107  0.00  0.00    +0.002 A 
ATOM     24  C   LIG    1       51.750  65.466  33.421  0.00  0.00    +0.019 A 
ATOM     25  C   LIG    1       52.260  64.803  34.533  0.00  0.00    +0.082 A 
ATOM     26  N   LIG    1       53.572  64.931  34.796  0.00  0.00    -0.241 NA
ATOM     27  C   LIG    1       54.140  64.307  35.848  0.00  0.00    +0.154 A 
ATOM     32  C   LIG    1       53.367  63.515  36.712  0.00  0.00    +0.038 A 
BRANCH  27  28
ATOM     28  C   LIG    1       55.611  64.576  36.016  0.00  0.00    +0.435 C 
ATOM     29  F   LIG    1       55.852  64.833  37.286  0.00  0.00    -0.164 F 
ATOM     30  F   LIG    1       56.085  65.537  35.245  0.00  0.00    -0.164 F 
ATOM     31  F   LIG    1       56.232  63.456  35.714  0.00  0.00    -0.164 F 
ENDBRANCH  27  28
ENDBRANCH   2   1
BRANCH   5   6
ATOM      6  C   LIG    1       48.786  60.474  40.085  0.00  0.00    +0.077 C 
ATOM      7  C   LIG    1       48.532  59.094  39.459  0.00  0.00    +0.044 C 
ATOM      8  C   LIG    1       47.833  58.293  40.557  0.00  0.00    +0.150 C 
ATOM     16  N   LIG    1       48.295  58.906  41.797  0.00  0.00    -0.209 NA
ATOM     17  C   LIG    1       49.037  60.138  41.565  0.00  0.00    +0.105 C 
BRANCH   8   9
ATOM      9  C   LIG    1       48.099  56.801  40.477  0.00  0.00    +0.242 C 
ATOM     10  O   LIG    1       49.158  56.351  40.912  0.00  0.00    -0.273 OA
ATOM     11  N   LIG    1       47.123  56.038  39.966  0.00  0.00    -0.268 N 
ATOM     12  C   LIG    1       45.887  56.647  39.456  0.00  0.00    +0.106 C 
ATOM     13  C   LIG    1       44.905  55.591  38.937  0.00  0.00    +0.081 C 
ATOM     14  S   LIG    1       45.877  54.178  38.710  0.00  0.00    -0.117 S 
ATOM     15  C   LIG    1       47.175  54.574  39.851  0.00  0.00    +0.152 C 
ENDBRANCH   8   9
ENDBRANCH   5   6
TORSDOF 4
ENDMDL
MODEL 3
REMARK VINA RESULT:    -7.763      4.973      9.244
REMARK INTER + INTRA:         -10.237
REMARK INTER:                  -9.907
REMARK INTRA:                  -0.330
REMARK UNBOUND:                -0.659
REMARK  Name = ligand_1
REMARK                            x       y       z     vdW  Elec       q    Type
REMARK                         _______ _______ _______ _____ _____    ______ ____
ROOT
ATOM      2  N   LIG    1       51.074  62.356  37.138  0.00  0.00    -0.305 N 
ATOM      3  C   LIG    1       50.236  61.338  36.512  0.00  0.00    +0.108 C 
ATOM      4  C   LIG    1       49.811  60.319  37.574  0.00  0.00    +0.094 C 
ATOM      5  N   LIG    1       49.207  61.010  38.723  0.00  0.00    -0.270 NA
ATOM     18  C   LIG    1       50.038  62.038  39.336  0.00  0.00    +0.094 C 
ATOM     19  C   LIG    1       50.455  63.054  38.275  0.00  0.00    +0.108 C 
ENDROOT
BRANCH   2   1
ATOM      1  C   LIG    1       51.872  63.157  36.248  0.00  0.00    +0.051 A 
ATOM     20  C   LIG    1       51.310  63.904  35.187  0.00  0.00    +0.031 A 
ATOM     21  C   LIG    1       49.959  63.813  34.860  0.00  0.00    +0.003 A 
ATOM     22  C   LIG    1       49.432  64.556  33.808  0.00  0.00    +0.000 A 
ATOM     23  C   LIG    1       50.245  65.403  33.052  0.00  0.00    +0.002 A 
ATOM     24  C   LIG    1       51.596  65.507  33.366  0.00  0.00    +0.019 A 
ATOM     25  C   LIG    1       52.118  64.766  34.421  0.00  0.00    +0.082 A 
ATOM     26  N   LIG    1       53.431  64.882  34.684  0.00  0.00    -0.241 NA
ATOM     27  C   LIG    1       54.010  64.183  35.682  0.00  0.00    +0.154 A 
ATOM     32  C   LIG    1       53.247  63.324  36.489  0.00  0.00    +0.038 A 
BRANCH  27  28
ATOM     28  C   LIG    1       55.480  64.448  35.859  0.00  0.00    +0.435 C 
ATOM     29  F   LIG    1       56.146  63.347  35.574  0.00  0.00    -0.164 F 
ATOM     30  F   LIG    1       55.817  64.903  37.051  0.00  0.00    -0.164 F 
ATOM     31  F   LIG    1       55.807  65.352  34.961  0.00  0.00    -0.164 F 
ENDBRANCH  27  28
ENDBRANCH   2   1
BRANCH   5   6
ATOM      6  C   LIG    1       48.824  60.022  39.770  0.00  0.00    +0.077 C 
ATOM      7  C   LIG    1       49.655  58.731  39.702  0.00  0.00    +0.044 C 
ATOM      8  C   LIG    1       49.628  58.177  41.127  0.00  0.00    +0.150 C 
ATOM     16  N   LIG    1       49.432  59.355  41.965  0.00  0.00    -0.209 NA
ATOM     17  C   LIG    1       49.119  60.546  41.185  0.00  0.00    +0.105 C 
BRANCH   8   9
ATOM      9  C   LIG    1       50.865  57.374  41.484  0.00  0.00    +0.242 C 
ATOM     10  O   LIG    1       51.979  57.871  41.321  0.00  0.00    -0.273 OA
ATOM     11  N   LIG    1       50.666  56.158  42.011  0.00  0.00    -0.268 N 
ATOM     12  C   LIG    1       49.306  55.625  42.168  0.00  0.00    +0.106 C 
ATOM     13  C   LIG    1       49.311  54.232  42.806  0.00  0.00    +0.081 C 
ATOM     14  S   LIG    1       50.937  53.675  42.603  0.00  0.00    -0.117 S 
ATOM     15  C   LIG    1       51.732  55.254  42.463  0.00  0.00    +0.152 C 
ENDBRANCH   8   9
ENDBRANCH   5   6
TORSDOF 4
ENDMDL
MODEL 4
REMARK VINA RESULT:    -7.691      4.581      8.827
REMARK INTER + INTRA:         -10.148
REMARK INTER:                  -9.545
REMARK INTRA:                  -0.603
REMARK UNBOUND:                -0.659
REMARK  Name = ligand_1
REMARK                            x       y       z     vdW  Elec       q    Type
REMARK                         _______ _______ _______ _____ _____    ______ ____
ROOT
ATOM      2  N   LIG    1       50.735  63.046  36.570  0.00  0.00    -0.305 N 
ATOM      3  C   LIG    1       49.402  62.671  36.108  0.00  0.00    +0.108 C 
ATOM      4  C   LIG    1       48.904  61.480  36.934  0.00  0.00    +0.094 C 
ATOM      5  N   LIG    1       49.009  61.782  38.370  0.00  0.00    -0.270 NA
ATOM     18  C   LIG    1       50.337  62.173  38.825  0.00  0.00    +0.094 C 
ATOM     19  C   LIG    1       50.827  63.363  38.003  0.00  0.00    +0.108 C 
ENDROOT
BRANCH   2   1
ATOM      1  C   LIG    1       51.508  63.867  35.677  0.00  0.00    +0.051 A 
ATOM     20  C   LIG    1       52.920  63.810  35.623  0.00  0.00    +0.031 A 
ATOM     21  C   LIG    1       53.658  63.041  36.519  0.00  0.00    +0.003 A 
ATOM     22  C   LIG    1       55.048  63.006  36.447  0.00  0.00    +0.000 A 
ATOM     23  C   LIG    1       55.733  63.743  35.479  0.00  0.00    +0.002 A 
ATOM     24  C   LIG    1       55.011  64.515  34.575  0.00  0.00    +0.019 A 
ATOM     25  C   LIG    1       53.622  64.545  34.649  0.00  0.00    +0.082 A 
ATOM     26  N   LIG    1       52.961  65.314  33.767  0.00  0.00    -0.241 NA
ATOM     27  C   LIG    1       51.615  65.404  33.787  0.00  0.00    +0.154 A 
ATOM     32  C   LIG    1       50.864  64.676  34.725  0.00  0.00    +0.038 A 
BRANCH  27  28
ATOM     28  C   LIG    1       51.031  66.285  32.717  0.00  0.00    +0.435 C 
ATOM     29  F   LIG    1       51.660  66.048  31.584  0.00  0.00    -0.164 F 
ATOM     30  F   LIG    1       51.043  67.574  32.999  0.00  0.00    -0.164 F 
ATOM     31  F   LIG    1       49.780  65.906  32.563  0.00  0.00    -0.164 F 
ENDBRANCH  27  28
ENDBRANCH   2   1
BRANCH   5   6
ATOM      6  C   LIG    1       48.557  60.612  39.173  0.00  0.00    +0.077 C 
ATOM      7  C   LIG    1       49.564  59.452  39.154  0.00  0.00    +0.044 C 
ATOM      8  C   LIG    1       49.308  58.695  40.456  0.00  0.00    +0.150 C 
ATOM     16  N   LIG    1       48.759  59.704  41.355  0.00  0.00    -0.209 NA
ATOM     17  C   LIG    1       48.452  60.952  40.669  0.00  0.00    +0.105 C 
BRANCH   8   9
ATOM      9  C   LIG    1       50.541  57.998  41.001  0.00  0.00    +0.242 C 
ATOM     10  O   LIG    1       51.639  58.542  40.897  0.00  0.00    -0.273 OA
ATOM     11  N   LIG    1       50.349  56.824  41.619  0.00  0.00    -0.268 N 
ATOM     12  C   LIG    1       49.008  56.230  41.696  0.00  0.00    +0.106 C 
ATOM     13  C   LIG    1       49.018  54.901  42.459  0.00  0.00    +0.081 C 
ATOM     14  S   LIG    1       50.681  54.423  42.463  0.00  0.00    -0.117 S 
ATOM     15  C   LIG    1       51.408  56.026  42.251  0.00  0.00    +0.152 C 
ENDBRANCH   8   9
ENDBRANCH   5   6
TORSDOF 4
ENDMDL
MODEL 5
REMARK VINA RESULT:    -7.565      5.283      7.033
REMARK INTER + INTRA:          -9.993
REMARK INTER:                  -9.496
REMARK INTRA:                  -0.497
REMARK UNBOUND:                -0.659
REMARK  Name = ligand_1
REMARK                            x       y       z     vdW  Elec       q    Type
REMARK                         _______ _______ _______ _____ _____    ______ ____
ROOT
ATOM      2  N   LIG    1       53.610  57.987  38.745  0.00  0.00    -0.305 N 
ATOM      3  C   LIG    1       54.624  58.946  38.317  0.00  0.00    +0.108 C 
ATOM      4  C   LIG    1       54.145  59.645  37.041  0.00  0.00    +0.094 C 
ATOM      5  N   LIG    1       52.800  60.204  37.247  0.00  0.00    -0.270 NA
ATOM     18  C   LIG    1       51.792  59.249  37.689  0.00  0.00    +0.094 C 
ATOM     19  C   LIG    1       52.273  58.558  38.964  0.00  0.00    +0.108 C 
ENDROOT
BRANCH   2   1
ATOM      1  C   LIG    1       54.041  56.979  39.676  0.00  0.00    +0.051 A 
ATOM     20  C   LIG    1       54.847  55.883  39.291  0.00  0.00    +0.031 A 
ATOM     21  C   LIG    1       55.173  55.644  37.958  0.00  0.00    +0.003 A 
ATOM     22  C   LIG    1       55.964  54.555  37.605  0.00  0.00    +0.000 A 
ATOM     23  C   LIG    1       56.445  53.675  38.576  0.00  0.00    +0.002 A 
ATOM     24  C   LIG    1       56.131  53.899  39.913  0.00  0.00    +0.019 A 
ATOM     25  C   LIG    1       55.342  54.991  40.261  0.00  0.00    +0.082 A 
ATOM     26  N   LIG    1       55.047  55.166  41.561  0.00  0.00    -0.241 NA
ATOM     27  C   LIG    1       54.276  56.194  41.972  0.00  0.00    +0.154 A 
ATOM     32  C   LIG    1       53.773  57.124  41.049  0.00  0.00    +0.038 A 
BRANCH  27  28
ATOM     28  C   LIG    1       54.065  56.261  43.460  0.00  0.00    +0.435 C 
ATOM     29  F   LIG    1       54.238  55.057  43.967  0.00  0.00    -0.164 F 
ATOM     30  F   LIG    1       52.900  56.760  43.828  0.00  0.00    -0.164 F 
ATOM     31  F   LIG    1       55.018  57.032  43.938  0.00  0.00    -0.164 F 
ENDBRANCH  27  28
ENDBRANCH   2   1
BRANCH   5   6
ATOM      6  C   LIG    1       52.320  60.854  35.996  0.00  0.00    +0.077 C 
ATOM      7  C   LIG    1       51.642  62.209  36.252  0.00  0.00    +0.044 C 
ATOM      8  C   LIG    1       51.825  62.987  34.949  0.00  0.00    +0.150 C 
ATOM     16  N   LIG    1       53.031  62.418  34.359  0.00  0.00    -0.209 NA
ATOM     17  C   LIG    1       53.484  61.224  35.061  0.00  0.00    +0.105 C 
BRANCH   8   9
ATOM      9  C   LIG    1       51.893  64.489  35.149  0.00  0.00    +0.242 C 
ATOM     10  O   LIG    1       52.228  64.941  36.244  0.00  0.00    -0.273 OA
ATOM     11  N   LIG    1       51.624  65.255  34.083  0.00  0.00    -0.268 N 
ATOM     12  C   LIG    1       51.221  64.646  32.808  0.00  0.00    +0.106 C 
ATOM     13  C   LIG    1       50.980  65.702  31.724  0.00  0.00    +0.081 C 
ATOM     14  S   LIG    1       50.795  67.182  32.602  0.00  0.00    -0.117 S 
ATOM     15  C   LIG    1       51.685  66.723  34.066  0.00  0.00    +0.152 C 
ENDBRANCH   8   9
ENDBRANCH   5   6
TORSDOF 4
ENDMDL
MODEL 6
REMARK VINA RESULT:    -7.489      4.651      7.989
REMARK INTER + INTRA:          -9.900
REMARK INTER:                  -8.997
REMARK INTRA:                  -0.903
REMARK UNBOUND:                -0.659
REMARK  Name = ligand_1
REMARK                            x       y       z     vdW  Elec       q    Type
REMARK                         _______ _______ _______ _____ _____    ______ ____
ROOT
ATOM      2  N   LIG    1       49.106  62.128  36.047  0.00  0.00    -0.305 N 
ATOM      3  C   LIG    1       49.500  60.798  35.592  0.00  0.00    +0.108 C 
ATOM      4  C   LIG    1       49.883  59.947  36.808  0.00  0.00    +0.094 C 
ATOM      5  N   LIG    1       48.801  59.975  37.804  0.00  0.00    -0.270 NA
ATOM     18  C   LIG    1       48.397  61.304  38.244  0.00  0.00    +0.094 C 
ATOM     19  C   LIG    1       48.012  62.146  37.029  0.00  0.00    +0.108 C 
ENDROOT
BRANCH   2   1
ATOM      1  C   LIG    1       49.092  63.162  35.047  0.00  0.00    +0.051 A 
ATOM     20  C   LIG    1       50.168  64.064  34.872  0.00  0.00    +0.031 A 
ATOM     21  C   LIG    1       51.257  64.084  35.739  0.00  0.00    +0.003 A 
ATOM     22  C   LIG    1       52.300  64.986  35.547  0.00  0.00    +0.000 A 
ATOM     23  C   LIG    1       52.276  65.892  34.486  0.00  0.00    +0.002 A 
ATOM     24  C   LIG    1       51.197  65.884  33.608  0.00  0.00    +0.019 A 
ATOM     25  C   LIG    1       50.158  64.980  33.803  0.00  0.00    +0.082 A 
ATOM     26  N   LIG    1       49.125  65.012  32.943  0.00  0.00    -0.241 NA
ATOM     27  C   LIG    1       48.075  64.175  33.077  0.00  0.00    +0.154 A 
ATOM     32  C   LIG    1       48.043  63.229  34.114  0.00  0.00    +0.038 A 
BRANCH  27  28
ATOM     28  C   LIG    1       47.018  64.324  32.017  0.00  0.00    +0.435 C 
ATOM     29  F   LIG    1       45.883  63.840  32.481  0.00  0.00    -0.164 F 
ATOM     30  F   LIG    1       47.322  63.776  30.856  0.00  0.00    -0.164 F 
ATOM     31  F   LIG    1       46.851  65.617  31.836  0.00  0.00    -0.164 F 
ENDBRANCH  27  28
ENDBRANCH   2   1
BRANCH   5   6
ATOM      6  C   LIG    1       49.186  59.176  39.000  0.00  0.00    +0.077 C 
ATOM      7  C   LIG    1       50.409  58.280  38.748  0.00  0.00    +0.044 C 
ATOM      8  C   LIG    1       51.038  58.085  40.127  0.00  0.00    +0.150 C 
ATOM     16  N   LIG    1       50.639  59.273  40.874  0.00  0.00    -0.209 NA
ATOM     17  C   LIG    1       49.650  60.071  40.161  0.00  0.00    +0.105 C 
BRANCH   8   9
ATOM      9  C   LIG    1       52.539  57.869  40.080  0.00  0.00    +0.242 C 
ATOM     10  O   LIG    1       53.210  58.462  39.235  0.00  0.00    -0.273 OA
ATOM     11  N   LIG    1       53.065  57.063  41.013  0.00  0.00    -0.268 N 
ATOM     12  C   LIG    1       52.200  56.382  41.985  0.00  0.00    +0.106 C 
ATOM     13  C   LIG    1       53.010  55.528  42.966  0.00  0.00    +0.081 C 
ATOM     14  S   LIG    1       54.547  55.333  42.196  0.00  0.00    -0.117 S 
ATOM     15  C   LIG    1       54.497  56.771  41.160  0.00  0.00    +0.152 C 
ENDBRANCH   8   9
ENDBRANCH   5   6
TORSDOF 4
ENDMDL
MODEL 7
REMARK VINA RESULT:    -7.278      4.950      8.866
REMARK INTER + INTRA:          -9.639
REMARK INTER:                  -8.802
REMARK INTRA:                  -0.837
REMARK UNBOUND:                -0.659
REMARK  Name = ligand_1
REMARK                            x       y       z     vdW  Elec       q    Type
REMARK                         _______ _______ _______ _____ _____    ______ ____
ROOT
ATOM      2  N   LIG    1       48.622  62.121  36.610  0.00  0.00    -0.305 N 
ATOM      3  C   LIG    1       49.125  60.759  36.460  0.00  0.00    +0.108 C 
ATOM      4  C   LIG    1       48.974  60.021  37.794  0.00  0.00    +0.094 C 
ATOM      5  N   LIG    1       47.588  60.129  38.275  0.00  0.00    -0.270 NA
ATOM     18  C   LIG    1       47.081  61.488  38.408  0.00  0.00    +0.094 C 
ATOM     19  C   LIG    1       47.230  62.218  37.075  0.00  0.00    +0.108 C 
ENDROOT
BRANCH   2   1
ATOM      1  C   LIG    1       49.033  63.064  35.604  0.00  0.00    +0.051 A 
ATOM     20  C   LIG    1       50.311  63.669  35.606  0.00  0.00    +0.031 A 
ATOM     21  C   LIG    1       51.210  63.482  36.654  0.00  0.00    +0.003 A 
ATOM     22  C   LIG    1       52.460  64.093  36.633  0.00  0.00    +0.000 A 
ATOM     23  C   LIG    1       52.840  64.910  35.567  0.00  0.00    +0.002 A 
ATOM     24  C   LIG    1       51.955  65.107  34.511  0.00  0.00    +0.019 A 
ATOM     25  C   LIG    1       50.708  64.492  34.535  0.00  0.00    +0.082 A 
ATOM     26  N   LIG    1       49.875  64.717  33.504  0.00  0.00    -0.241 NA
ATOM     27  C   LIG    1       48.644  64.166  33.465  0.00  0.00    +0.154 A 
ATOM     32  C   LIG    1       48.205  63.322  34.497  0.00  0.00    +0.038 A 
BRANCH  27  28
ATOM     28  C   LIG    1       47.850  64.498  32.231  0.00  0.00    +0.435 C 
ATOM     29  F   LIG    1       46.626  64.828  32.591  0.00  0.00    -0.164 F 
ATOM     30  F   LIG    1       47.828  63.545  31.318  0.00  0.00    -0.164 F 
ATOM     31  F   LIG    1       48.409  65.566  31.703  0.00  0.00    -0.164 F 
ENDBRANCH  27  28
ENDBRANCH   2   1
BRANCH   5   6
ATOM      6  C   LIG    1       47.448  59.439  39.589  0.00  0.00    +0.077 C 
ATOM      7  C   LIG    1       48.384  58.229  39.727  0.00  0.00    +0.044 C 
ATOM      8  C   LIG    1       48.604  58.080  41.233  0.00  0.00    +0.150 C 
ATOM     16  N   LIG    1       48.407  59.427  41.758  0.00  0.00    -0.209 NA
ATOM     17  C   LIG    1       47.877  60.342  40.756  0.00  0.00    +0.105 C 
BRANCH   8   9
ATOM      9  C   LIG    1       49.950  57.477  41.589  0.00  0.00    +0.242 C 
ATOM     10  O   LIG    1       50.963  58.172  41.518  0.00  0.00    -0.273 OA
ATOM     11  N   LIG    1       49.951  56.206  42.014  0.00  0.00    -0.268 N 
ATOM     12  C   LIG    1       48.702  55.434  42.064  0.00  0.00    +0.106 C 
ATOM     13  C   LIG    1       48.932  54.015  42.596  0.00  0.00    +0.081 C 
ATOM     14  S   LIG    1       50.637  53.768  42.432  0.00  0.00    -0.117 S 
ATOM     15  C   LIG    1       51.144  55.467  42.448  0.00  0.00    +0.152 C 
ENDBRANCH   8   9
ENDBRANCH   5   6
TORSDOF 4
ENDMDL
MODEL 8
REMARK VINA RESULT:    -7.114      4.261      5.719
REMARK INTER + INTRA:          -9.437
REMARK INTER:                  -8.826
REMARK INTRA:                  -0.611
REMARK UNBOUND:                -0.659
REMARK  Name = ligand_1
REMARK                            x       y       z     vdW  Elec       q    Type
REMARK                         _______ _______ _______ _____ _____    ______ ____
ROOT
ATOM      2  N   LIG    1       52.279  59.387  38.676  0.00  0.00    -0.305 N 
ATOM      3  C   LIG    1       51.361  59.295  37.544  0.00  0.00    +0.108 C 
ATOM      4  C   LIG    1       51.778  60.316  36.480  0.00  0.00    +0.094 C 
ATOM      5  N   LIG    1       53.202  60.148  36.150  0.00  0.00    -0.270 NA
ATOM     18  C   LIG    1       54.114  60.222  37.283  0.00  0.00    +0.094 C 
ATOM     19  C   LIG    1       53.698  59.200  38.338  0.00  0.00    +0.108 C 
ENDROOT
BRANCH   2   1
ATOM      1  C   LIG    1       51.827  58.799  39.909  0.00  0.00    +0.051 A 
ATOM     20  C   LIG    1       50.665  59.243  40.582  0.00  0.00    +0.031 A 
ATOM     21  C   LIG    1       49.952  60.361  40.155  0.00  0.00    +0.003 A 
ATOM     22  C   LIG    1       48.814  60.780  40.839  0.00  0.00    +0.000 A 
ATOM     23  C   LIG    1       48.365  60.094  41.968  0.00  0.00    +0.002 A 
ATOM     24  C   LIG    1       49.063  58.973  42.406  0.00  0.00    +0.019 A 
ATOM     25  C   LIG    1       50.198  58.556  41.718  0.00  0.00    +0.082 A 
ATOM     26  N   LIG    1       50.854  57.479  42.181  0.00  0.00    -0.241 NA
ATOM     27  C   LIG    1       51.971  57.025  41.574  0.00  0.00    +0.154 A 
ATOM     32  C   LIG    1       52.469  57.660  40.426  0.00  0.00    +0.038 A 
BRANCH  27  28
ATOM     28  C   LIG    1       52.568  55.794  42.202  0.00  0.00    +0.435 C 
ATOM     29  F   LIG    1       51.595  55.062  42.706  0.00  0.00    -0.164 F 
ATOM     30  F   LIG    1       53.493  56.035  43.112  0.00  0.00    -0.164 F 
ATOM     31  F   LIG    1       53.116  55.105  41.224  0.00  0.00    -0.164 F 
ENDBRANCH  27  28
ENDBRANCH   2   1
BRANCH   5   6
ATOM      6  C   LIG    1       53.616  61.161  35.139  0.00  0.00    +0.077 C 
ATOM      7  C   LIG    1       52.534  62.222  34.884  0.00  0.00    +0.044 C 
ATOM      8  C   LIG    1       53.304  63.454  34.407  0.00  0.00    +0.150 C 
ATOM     16  N   LIG    1       54.625  63.304  35.007  0.00  0.00    -0.209 NA
ATOM     17  C   LIG    1       54.810  61.998  35.626  0.00  0.00    +0.105 C 
BRANCH   8   9
ATOM      9  C   LIG    1       52.621  64.763  34.754  0.00  0.00    +0.242 C 
ATOM     10  O   LIG    1       52.686  65.195  35.905  0.00  0.00    -0.273 OA
ATOM     11  N   LIG    1       52.010  65.412  33.753  0.00  0.00    -0.268 N 
ATOM     12  C   LIG    1       51.964  64.831  32.404  0.00  0.00    +0.106 C 
ATOM     13  C   LIG    1       51.236  65.747  31.415  0.00  0.00    +0.081 C 
ATOM     14  S   LIG    1       50.342  66.836  32.419  0.00  0.00    -0.117 S 
ATOM     15  C   LIG    1       51.339  66.712  33.880  0.00  0.00    +0.152 C 
ENDBRANCH   8   9
ENDBRANCH   5   6
TORSDOF 4
ENDMDL
MODEL 9
REMARK VINA RESULT:    -6.762      5.084      8.397
REMARK INTER + INTRA:          -9.002
REMARK INTER:                  -8.659
REMARK INTRA:                  -0.342
REMARK UNBOUND:                -0.659
REMARK  Name = ligand_1
REMARK                            x       y       z     vdW  Elec       q    Type
REMARK                         _______ _______ _______ _____ _____    ______ ____
ROOT
ATOM      2  N   LIG    1       49.748  61.698  36.631  0.00  0.00    -0.305 N 
ATOM      3  C   LIG    1       49.647  60.327  36.139  0.00  0.00    +0.108 C 
ATOM      4  C   LIG    1       49.977  59.361  37.281  0.00  0.00    +0.094 C 
ATOM      5  N   LIG    1       49.148  59.668  38.457  0.00  0.00    -0.270 NA
ATOM     18  C   LIG    1       49.237  61.041  38.937  0.00  0.00    +0.094 C 
ATOM     19  C   LIG    1       48.903  62.000  37.796  0.00  0.00    +0.108 C 
ENDROOT
BRANCH   2   1
ATOM      1  C   LIG    1       49.857  62.726  35.630  0.00  0.00    +0.051 A 
ATOM     20  C   LIG    1       48.778  63.088  34.791  0.00  0.00    +0.031 A 
ATOM     21  C   LIG    1       47.575  62.385  34.798  0.00  0.00    +0.003 A 
ATOM     22  C   LIG    1       46.531  62.760  33.958  0.00  0.00    +0.000 A 
ATOM     23  C   LIG    1       46.665  63.843  33.087  0.00  0.00    +0.002 A 
ATOM     24  C   LIG    1       47.859  64.557  33.069  0.00  0.00    +0.019 A 
ATOM     25  C   LIG    1       48.900  64.181  33.912  0.00  0.00    +0.082 A 
ATOM     26  N   LIG    1       50.043  64.885  33.855  0.00  0.00    -0.241 NA
ATOM     27  C   LIG    1       51.099  64.571  34.632  0.00  0.00    +0.154 A 
ATOM     32  C   LIG    1       51.026  63.503  35.541  0.00  0.00    +0.038 A 
BRANCH  27  28
ATOM     28  C   LIG    1       52.290  65.475  34.465  0.00  0.00    +0.435 C 
ATOM     29  F   LIG    1       53.220  65.114  35.326  0.00  0.00    -0.164 F 
ATOM     30  F   LIG    1       52.023  66.762  34.575  0.00  0.00    -0.164 F 
ATOM     31  F   LIG    1       52.762  65.250  33.257  0.00  0.00    -0.164 F 
ENDBRANCH  27  28
ENDBRANCH   2   1
BRANCH   5   6
ATOM      6  C   LIG    1       49.492  58.750  39.578  0.00  0.00    +0.077 C 
ATOM      7  C   LIG    1       50.683  57.835  39.254  0.00  0.00    +0.044 C 
ATOM      8  C   LIG    1       51.291  57.493  40.614  0.00  0.00    +0.150 C 
ATOM     16  N   LIG    1       50.928  58.623  41.463  0.00  0.00    -0.209 NA
ATOM     17  C   LIG    1       49.977  59.519  40.818  0.00  0.00    +0.105 C 
BRANCH   8   9
ATOM      9  C   LIG    1       52.783  57.227  40.558  0.00  0.00    +0.242 C 
ATOM     10  O   LIG    1       53.490  57.893  39.802  0.00  0.00    -0.273 OA
ATOM     11  N   LIG    1       53.263  56.290  41.388  0.00  0.00    -0.268 N 
ATOM     12  C   LIG    1       52.358  55.527  42.257  0.00  0.00    +0.106 C 
ATOM     13  C   LIG    1       53.119  54.525  43.132  0.00  0.00    +0.081 C 
ATOM     14  S   LIG    1       54.660  54.369  42.361  0.00  0.00    -0.117 S 
ATOM     15  C   LIG    1       54.681  55.926  41.513  0.00  0.00    +0.152 C 
ENDBRANCH   8   9
ENDBRANCH   5   6
TORSDOF 4
ENDMDL
