MODEL 1
REMARK VINA RESULT:    -8.043      0.000      0.000
REMARK INTER + INTRA:         -10.733
REMARK INTER:                  -9.924
REMARK INTRA:                  -0.809
REMARK UNBOUND:                -0.809
REMARK  Name = ligand_1
REMARK                            x       y       z     vdW  Elec       q    Type
REMARK                         _______ _______ _______ _____ _____    ______ ____
ROOT
ATOM      2  N   LIG    1       51.178  62.660  37.436  0.00  0.00    -0.305 N 
ATOM      3  C   LIG    1       50.815  63.414  38.632  0.00  0.00    +0.108 C 
ATOM      4  C   LIG    1       49.638  62.718  39.324  0.00  0.00    +0.094 C 
ATOM      5  N   LIG    1       49.953  61.299  39.549  0.00  0.00    -0.270 NA
ATOM     18  C   LIG    1       50.331  60.551  38.357  0.00  0.00    +0.094 C 
ATOM     19  C   LIG    1       51.507  61.246  37.673  0.00  0.00    +0.108 C 
ENDROOT
BRANCH   2   1
ATOM      1  C   LIG    1       51.981  63.354  36.466  0.00  0.00    +0.051 A 
ATOM     20  C   LIG    1       51.424  63.983  35.328  0.00  0.00    +0.031 A 
ATOM     21  C   LIG    1       50.074  63.863  35.011  0.00  0.00    +0.003 A 
ATOM     22  C   LIG    1       49.552  64.488  33.882  0.00  0.00    +0.000 A 
ATOM     23  C   LIG    1       50.369  65.243  33.040  0.00  0.00    +0.002 A 
ATOM     24  C   LIG    1       51.721  65.376  33.343  0.00  0.00    +0.019 A 
ATOM     25  C   LIG    1       52.237  64.752  34.474  0.00  0.00    +0.082 A 
ATOM     26  N   LIG    1       53.550  64.890  34.725  0.00  0.00    -0.241 NA
ATOM     27  C   LIG    1       54.125  64.302  35.795  0.00  0.00    +0.154 A 
ATOM     32  C   LIG    1       53.357  63.541  36.690  0.00  0.00    +0.038 A 
BRANCH  27  28
ATOM     28  C   LIG    1       55.596  64.579  35.946  0.00  0.00    +0.435 C 
ATOM     29  F   LIG    1       56.266  63.493  35.617  0.00  0.00    -0.164 F 
ATOM     30  F   LIG    1       55.956  65.007  37.141  0.00  0.00    -0.164 F 
ATOM     31  F   LIG    1       55.893  65.509  35.064  0.00  0.00    -0.164 F 
ENDBRANCH  27  28
ENDBRANCH   2   1
BRANCH   5   6
ATOM      6  C   LIG    1       48.796  60.615  40.191  0.00  0.00    +0.077 C 
ATOM      7  C   LIG    1       48.494  59.245  39.566  0.00  0.00    +0.044 C 
ATOM      8  C   LIG    1       47.810  58.453  40.681  0.00  0.00    +0.150 C 
ATOM     16  N   LIG    1       48.322  59.049  41.910  0.00  0.00    -0.209 NA
ATOM     17  C   LIG    1       49.083  60.266  41.661  0.00  0.00    +0.105 C 
BRANCH   8   9
ATOM      9  C   LIG    1       48.042  56.956  40.586  0.00  0.00    +0.242 C 
ATOM     10  O   LIG    1       49.062  56.469  41.072  0.00  0.00    -0.273 OA
ATOM     11  N   LIG    1       47.077  56.229  40.006  0.00  0.00    -0.268 N 
ATOM     12  C   LIG    1       45.889  56.881  39.438  0.00  0.00    +0.106 C 
ATOM     13  C   LIG    1       44.911  55.862  38.843  0.00  0.00    +0.081 C 
ATOM     14  S   LIG    1       45.858  54.428  38.643  0.00  0.00    -0.117 S 
ATOM     15  C   LIG    1       47.097  54.767  39.864  0.00  0.00    +0.152 C 
ENDBRANCH   8   9
ENDBRANCH   5   6
TORSDOF 4
ENDMDL
MODEL 2
REMARK VINA RESULT:    -7.612      2.041      2.385
REMARK INTER + INTRA:         -10.201
REMARK INTER:                  -9.925
REMARK INTRA:                  -0.276
REMARK UNBOUND:                -0.809
REMARK  Name = ligand_1
REMARK                            x       y       z     vdW  Elec       q    Type
REMARK                         _______ _______ _______ _____ _____    ______ ____
ROOT
ATOM      2  N   LIG    1       50.976  62.391  37.193  0.00  0.00    -0.305 N 
ATOM      3  C   LIG    1       50.059  61.439  36.573  0.00  0.00    +0.108 C 
ATOM      4  C   LIG    1       49.605  60.424  37.627  0.00  0.00    +0.094 C 
ATOM      5  N   LIG    1       49.079  61.125  38.809  0.00  0.00    -0.270 NA
ATOM     18  C   LIG    1       49.989  62.087  39.416  0.00  0.00    +0.094 C 
ATOM     19  C   LIG    1       50.435  63.099  38.363  0.00  0.00    +0.108 C 
ENDROOT
BRANCH   2   1
ATOM      1  C   LIG    1       51.795  63.162  36.296  0.00  0.00    +0.051 A 
ATOM     20  C   LIG    1       51.254  63.894  35.213  0.00  0.00    +0.031 A 
ATOM     21  C   LIG    1       49.906  63.814  34.874  0.00  0.00    +0.003 A 
ATOM     22  C   LIG    1       49.400  64.541  33.800  0.00  0.00    +0.000 A 
ATOM     23  C   LIG    1       50.233  65.361  33.036  0.00  0.00    +0.002 A 
ATOM     24  C   LIG    1       51.582  65.454  33.362  0.00  0.00    +0.019 A 
ATOM     25  C   LIG    1       52.082  64.728  34.438  0.00  0.00    +0.082 A 
ATOM     26  N   LIG    1       53.394  64.832  34.713  0.00  0.00    -0.241 NA
ATOM     27  C   LIG    1       53.952  64.146  35.732  0.00  0.00    +0.154 A 
ATOM     32  C   LIG    1       53.169  63.315  36.549  0.00  0.00    +0.038 A 
BRANCH  27  28
ATOM     28  C   LIG    1       55.424  64.395  35.920  0.00  0.00    +0.435 C 
ATOM     29  F   LIG    1       56.079  63.282  35.656  0.00  0.00    -0.164 F 
ATOM     30  F   LIG    1       55.756  64.863  37.109  0.00  0.00    -0.164 F 
ATOM     31  F   LIG    1       55.771  65.283  35.013  0.00  0.00    -0.164 F 
ENDBRANCH  27  28
ENDBRANCH   2   1
BRANCH   5   6
ATOM      6  C   LIG    1       48.668  60.139  39.847  0.00  0.00    +0.077 C 
ATOM      7  C   LIG    1       49.453  58.821  39.759  0.00  0.00    +0.044 C 
ATOM      8  C   LIG    1       49.415  58.252  41.177  0.00  0.00    +0.150 C 
ATOM     16  N   LIG    1       49.264  59.426  42.030  0.00  0.00    -0.209 NA
ATOM     17  C   LIG    1       48.988  60.635  41.266  0.00  0.00    +0.105 C 
BRANCH   8   9
ATOM      9  C   LIG    1       50.625  57.402  41.518  0.00  0.00    +0.242 C 
ATOM     10  O   LIG    1       51.754  57.870  41.372  0.00  0.00    -0.273 OA
ATOM     11  N   LIG    1       50.387  56.180  42.012  0.00  0.00    -0.268 N 
ATOM     12  C   LIG    1       49.011  55.684  42.150  0.00  0.00    +0.106 C 
ATOM     13  C   LIG    1       48.971  54.275  42.751  0.00  0.00    +0.081 C 
ATOM     14  S   LIG    1       50.580  53.675  42.541  0.00  0.00    -0.117 S 
ATOM     15  C   LIG    1       51.423  55.232  42.445  0.00  0.00    +0.152 C 
ENDBRANCH   8   9
ENDBRANCH   5   6
TORSDOF 4
ENDMDL
MODEL 3
REMARK VINA RESULT:    -7.589      2.860      3.882
REMARK INTER + INTRA:         -10.173
REMARK INTER:                  -9.583
REMARK INTRA:                  -0.590
REMARK UNBOUND:                -0.809
REMARK  Name = ligand_1
REMARK                            x       y       z     vdW  Elec       q    Type
REMARK                         _______ _______ _______ _____ _____    ______ ____
ROOT
ATOM      2  N   LIG    1       50.750  63.029  36.653  0.00  0.00    -0.305 N 
ATOM      3  C   LIG    1       49.421  62.649  36.183  0.00  0.00    +0.108 C 
ATOM      4  C   LIG    1       48.927  61.450  37.000  0.00  0.00    +0.094 C 
ATOM      5  N   LIG    1       49.023  61.746  38.438  0.00  0.00    -0.270 NA
ATOM     18  C   LIG    1       50.347  62.141  38.902  0.00  0.00    +0.094 C 
ATOM     19  C   LIG    1       50.833  63.339  38.088  0.00  0.00    +0.108 C 
ENDROOT
BRANCH   2   1
ATOM      1  C   LIG    1       51.523  63.860  35.769  0.00  0.00    +0.051 A 
ATOM     20  C   LIG    1       52.936  63.825  35.734  0.00  0.00    +0.031 A 
ATOM     21  C   LIG    1       53.674  63.069  36.642  0.00  0.00    +0.003 A 
ATOM     22  C   LIG    1       55.065  63.056  36.589  0.00  0.00    +0.000 A 
ATOM     23  C   LIG    1       55.751  63.801  35.629  0.00  0.00    +0.002 A 
ATOM     24  C   LIG    1       55.030  64.560  34.713  0.00  0.00    +0.019 A 
ATOM     25  C   LIG    1       53.640  64.568  34.768  0.00  0.00    +0.082 A 
ATOM     26  N   LIG    1       52.979  65.325  33.875  0.00  0.00    -0.241 NA
ATOM     27  C   LIG    1       51.632  65.393  33.877  0.00  0.00    +0.154 A 
ATOM     32  C   LIG    1       50.879  64.657  34.806  0.00  0.00    +0.038 A 
BRANCH  27  28
ATOM     28  C   LIG    1       51.049  66.264  32.796  0.00  0.00    +0.435 C 
ATOM     29  F   LIG    1       49.755  66.029  32.716  0.00  0.00    -0.164 F 
ATOM     30  F   LIG    1       51.623  66.133  31.616  0.00  0.00    -0.164 F 
ATOM     31  F   LIG    1       51.201  67.508  33.197  0.00  0.00    -0.164 F 
ENDBRANCH  27  28
ENDBRANCH   2   1
BRANCH   5   6
ATOM      6  C   LIG    1       48.574  60.568  39.232  0.00  0.00    +0.077 C 
ATOM      7  C   LIG    1       49.575  59.404  39.188  0.00  0.00    +0.044 C 
ATOM      8  C   LIG    1       49.329  58.632  40.484  0.00  0.00    +0.150 C 
ATOM     16  N   LIG    1       48.796  59.634  41.401  0.00  0.00    -0.209 NA
ATOM     17  C   LIG    1       48.488  60.891  40.733  0.00  0.00    +0.105 C 
BRANCH   8   9
ATOM      9  C   LIG    1       50.565  57.923  41.007  0.00  0.00    +0.242 C 
ATOM     10  O   LIG    1       51.663  58.470  40.914  0.00  0.00    -0.273 OA
ATOM     11  N   LIG    1       50.377  56.733  41.594  0.00  0.00    -0.268 N 
ATOM     12  C   LIG    1       49.036  56.135  41.661  0.00  0.00    +0.106 C 
ATOM     13  C   LIG    1       49.050  54.787  42.388  0.00  0.00    +0.081 C 
ATOM     14  S   LIG    1       50.714  54.311  42.374  0.00  0.00    -0.117 S 
ATOM     15  C   LIG    1       51.438  55.919  42.202  0.00  0.00    +0.152 C 
ENDBRANCH   8   9
ENDBRANCH   5   6
TORSDOF 4
ENDMDL
MODEL 4
REMARK VINA RESULT:    -7.464      6.574     10.134
REMARK INTER + INTRA:         -10.018
REMARK INTER:                  -9.430
REMARK INTRA:                  -0.588
REMARK UNBOUND:                -0.809
REMARK  Name = ligand_1
REMARK                            x       y       z     vdW  Elec       q    Type
REMARK                         _______ _______ _______ _____ _____    ______ ____
ROOT
ATOM      2  N   LIG    1       53.548  57.928  38.724  0.00  0.00    -0.305 N 
ATOM      3  C   LIG    1       54.473  59.030  38.478  0.00  0.00    +0.108 C 
ATOM      4  C   LIG    1       54.059  59.752  37.192  0.00  0.00    +0.094 C 
ATOM      5  N   LIG    1       52.638  60.129  37.260  0.00  0.00    -0.270 NA
ATOM     18  C   LIG    1       51.718  59.031  37.523  0.00  0.00    +0.094 C 
ATOM     19  C   LIG    1       52.132  58.317  38.807  0.00  0.00    +0.108 C 
ENDROOT
BRANCH   2   1
ATOM      1  C   LIG    1       53.994  56.917  39.646  0.00  0.00    +0.051 A 
ATOM     20  C   LIG    1       54.823  55.842  39.251  0.00  0.00    +0.031 A 
ATOM     21  C   LIG    1       55.160  55.626  37.917  0.00  0.00    +0.003 A 
ATOM     22  C   LIG    1       55.974  54.557  37.555  0.00  0.00    +0.000 A 
ATOM     23  C   LIG    1       56.467  53.675  38.518  0.00  0.00    +0.002 A 
ATOM     24  C   LIG    1       56.142  53.877  39.856  0.00  0.00    +0.019 A 
ATOM     25  C   LIG    1       55.331  54.949  40.213  0.00  0.00    +0.082 A 
ATOM     26  N   LIG    1       55.026  55.102  41.513  0.00  0.00    -0.241 NA
ATOM     27  C   LIG    1       54.233  56.110  41.933  0.00  0.00    +0.154 A 
ATOM     32  C   LIG    1       53.716  57.041  41.018  0.00  0.00    +0.038 A 
BRANCH  27  28
ATOM     28  C   LIG    1       54.013  56.154  43.421  0.00  0.00    +0.435 C 
ATOM     29  F   LIG    1       54.915  56.951  43.958  0.00  0.00    -0.164 F 
ATOM     30  F   LIG    1       54.018  54.975  44.013  0.00  0.00    -0.164 F 
ATOM     31  F   LIG    1       52.834  56.708  43.607  0.00  0.00    -0.164 F 
ENDBRANCH  27  28
ENDBRANCH   2   1
BRANCH   5   6
ATOM      6  C   LIG    1       52.227  60.802  35.996  0.00  0.00    +0.077 C 
ATOM      7  C   LIG    1       51.541  62.155  36.239  0.00  0.00    +0.044 C 
ATOM      8  C   LIG    1       51.795  62.954  34.961  0.00  0.00    +0.150 C 
ATOM     16  N   LIG    1       53.029  62.389  34.425  0.00  0.00    -0.209 NA
ATOM     17  C   LIG    1       53.439  61.182  35.131  0.00  0.00    +0.105 C 
BRANCH   8   9
ATOM      9  C   LIG    1       51.859  64.452  35.189  0.00  0.00    +0.242 C 
ATOM     10  O   LIG    1       52.139  64.884  36.306  0.00  0.00    -0.273 OA
ATOM     11  N   LIG    1       51.646  65.236  34.123  0.00  0.00    -0.268 N 
ATOM     12  C   LIG    1       51.306  64.650  32.819  0.00  0.00    +0.106 C 
ATOM     13  C   LIG    1       51.123  65.725  31.742  0.00  0.00    +0.081 C 
ATOM     14  S   LIG    1       50.899  67.190  32.635  0.00  0.00    -0.117 S 
ATOM     15  C   LIG    1       51.712  66.704  34.133  0.00  0.00    +0.152 C 
ENDBRANCH   8   9
ENDBRANCH   5   6
TORSDOF 4
ENDMDL
MODEL 5
REMARK VINA RESULT:    -7.341      4.518      5.636
REMARK INTER + INTRA:          -9.866
REMARK INTER:                  -8.968
REMARK INTRA:                  -0.898
REMARK UNBOUND:                -0.809
REMARK  Name = ligand_1
REMARK                            x       y       z     vdW  Elec       q    Type
REMARK                         _______ _______ _______ _____ _____    ______ ____
ROOT
ATOM      2  N   LIG    1       49.130  62.151  36.023  0.00  0.00    -0.305 N 
ATOM      3  C   LIG    1       49.562  60.832  35.568  0.00  0.00    +0.108 C 
ATOM      4  C   LIG    1       49.959  59.990  36.785  0.00  0.00    +0.094 C 
ATOM      5  N   LIG    1       48.870  59.987  37.774  0.00  0.00    -0.270 NA
ATOM     18  C   LIG    1       48.429  61.304  38.214  0.00  0.00    +0.094 C 
ATOM     19  C   LIG    1       48.030  62.138  36.999  0.00  0.00    +0.108 C 
ENDROOT
BRANCH   2   1
ATOM      1  C   LIG    1       49.095  63.187  35.026  0.00  0.00    +0.051 A 
ATOM     20  C   LIG    1       50.170  64.084  34.824  0.00  0.00    +0.031 A 
ATOM     21  C   LIG    1       51.281  64.098  35.663  0.00  0.00    +0.003 A 
ATOM     22  C   LIG    1       52.323  64.995  35.445  0.00  0.00    +0.000 A 
ATOM     23  C   LIG    1       52.276  65.903  34.386  0.00  0.00    +0.002 A 
ATOM     24  C   LIG    1       51.175  65.901  33.537  0.00  0.00    +0.019 A 
ATOM     25  C   LIG    1       50.137  65.001  33.756  0.00  0.00    +0.082 A 
ATOM     26  N   LIG    1       49.083  65.040  32.924  0.00  0.00    -0.241 NA
ATOM     27  C   LIG    1       48.033  64.207  33.083  0.00  0.00    +0.154 A 
ATOM     32  C   LIG    1       48.023  63.260  34.120  0.00  0.00    +0.038 A 
BRANCH  27  28
ATOM     28  C   LIG    1       46.949  64.362  32.051  0.00  0.00    +0.435 C 
ATOM     29  F   LIG    1       46.456  65.581  32.136  0.00  0.00    -0.164 F 
ATOM     30  F   LIG    1       45.988  63.462  32.124  0.00  0.00    -0.164 F 
ATOM     31  F   LIG    1       47.534  64.253  30.877  0.00  0.00    -0.164 F 
ENDBRANCH  27  28
ENDBRANCH   2   1
BRANCH   5   6
ATOM      6  C   LIG    1       49.269  59.196  38.971  0.00  0.00    +0.077 C 
ATOM      7  C   LIG    1       50.461  58.266  38.699  0.00  0.00    +0.044 C 
ATOM      8  C   LIG    1       51.123  58.075  40.063  0.00  0.00    +0.150 C 
ATOM     16  N   LIG    1       50.774  59.283  40.803  0.00  0.00    -0.209 NA
ATOM     17  C   LIG    1       49.787  60.095  40.105  0.00  0.00    +0.105 C 
BRANCH   8   9
ATOM      9  C   LIG    1       52.617  57.821  39.978  0.00  0.00    +0.242 C 
ATOM     10  O   LIG    1       53.280  58.392  39.113  0.00  0.00    -0.273 OA
ATOM     11  N   LIG    1       53.146  57.007  40.901  0.00  0.00    -0.268 N 
ATOM     12  C   LIG    1       52.291  56.352  41.899  0.00  0.00    +0.106 C 
ATOM     13  C   LIG    1       53.104  55.482  42.864  0.00  0.00    +0.081 C 
ATOM     14  S   LIG    1       54.615  55.245  42.054  0.00  0.00    -0.117 S 
ATOM     15  C   LIG    1       54.574  56.679  41.012  0.00  0.00    +0.152 C 
ENDBRANCH   8   9
ENDBRANCH   5   6
TORSDOF 4
ENDMDL
MODEL 6
REMARK VINA RESULT:    -7.290      6.554      9.992
REMARK INTER + INTRA:          -9.803
REMARK INTER:                  -9.668
REMARK INTRA:                  -0.135
REMARK UNBOUND:                -0.809
REMARK  Name = ligand_1
REMARK                            x       y       z     vdW  Elec       q    Type
REMARK                         _______ _______ _______ _____ _____    ______ ____
ROOT
ATOM      2  N   LIG    1       54.624  58.546  38.182  0.00  0.00    -0.305 N 
ATOM      3  C   LIG    1       53.385  58.577  37.412  0.00  0.00    +0.108 C 
ATOM      4  C   LIG    1       53.092  60.022  36.996  0.00  0.00    +0.094 C 
ATOM      5  N   LIG    1       54.264  60.601  36.321  0.00  0.00    -0.270 NA
ATOM     18  C   LIG    1       55.504  60.553  37.085  0.00  0.00    +0.094 C 
ATOM     19  C   LIG    1       55.794  59.111  37.493  0.00  0.00    +0.108 C 
ENDROOT
BRANCH   2   1
ATOM      1  C   LIG    1       54.851  57.366  38.975  0.00  0.00    +0.051 A 
ATOM     20  C   LIG    1       55.579  56.254  38.492  0.00  0.00    +0.031 A 
ATOM     21  C   LIG    1       56.019  56.182  37.173  0.00  0.00    +0.003 A 
ATOM     22  C   LIG    1       56.731  55.074  36.723  0.00  0.00    +0.000 A 
ATOM     23  C   LIG    1       57.014  54.009  37.580  0.00  0.00    +0.002 A 
ATOM     24  C   LIG    1       56.584  54.065  38.901  0.00  0.00    +0.019 A 
ATOM     25  C   LIG    1       55.876  55.177  39.348  0.00  0.00    +0.082 A 
ATOM     26  N   LIG    1       55.464  55.189  40.627  0.00  0.00    -0.241 NA
ATOM     27  C   LIG    1       54.760  56.226  41.127  0.00  0.00    +0.154 A 
ATOM     32  C   LIG    1       54.454  57.335  40.323  0.00  0.00    +0.038 A 
BRANCH  27  28
ATOM     28  C   LIG    1       54.399  56.093  42.581  0.00  0.00    +0.435 C 
ATOM     29  F   LIG    1       53.099  56.265  42.713  0.00  0.00    -0.164 F 
ATOM     30  F   LIG    1       55.063  56.900  43.388  0.00  0.00    -0.164 F 
ATOM     31  F   LIG    1       54.670  54.851  42.921  0.00  0.00    -0.164 F 
ENDBRANCH  27  28
ENDBRANCH   2   1
BRANCH   5   6
ATOM      6  C   LIG    1       53.991  62.016  35.946  0.00  0.00    +0.077 C 
ATOM      7  C   LIG    1       53.312  62.147  34.574  0.00  0.00    +0.044 C 
ATOM      8  C   LIG    1       52.541  63.465  34.648  0.00  0.00    +0.150 C 
ATOM     16  N   LIG    1       52.266  63.640  36.070  0.00  0.00    -0.209 NA
ATOM     17  C   LIG    1       52.976  62.673  36.896  0.00  0.00    +0.105 C 
BRANCH   8   9
ATOM      9  C   LIG    1       51.297  63.485  33.779  0.00  0.00    +0.242 C 
ATOM     10  O   LIG    1       50.679  62.440  33.582  0.00  0.00    -0.273 OA
ATOM     11  N   LIG    1       50.910  64.677  33.303  0.00  0.00    -0.268 N 
ATOM     12  C   LIG    1       51.705  65.883  33.572  0.00  0.00    +0.106 C 
ATOM     13  C   LIG    1       51.071  67.132  32.951  0.00  0.00    +0.081 C 
ATOM     14  S   LIG    1       49.964  66.510  31.775  0.00  0.00    -0.117 S 
ATOM     15  C   LIG    1       49.711  64.906  32.487  0.00  0.00    +0.152 C 
ENDBRANCH   8   9
ENDBRANCH   5   6
TORSDOF 4
ENDMDL
MODEL 7
REMARK VINA RESULT:    -7.086      5.336      6.400
REMARK INTER + INTRA:          -9.552
REMARK INTER:                  -8.692
REMARK INTRA:                  -0.861
REMARK UNBOUND:                -0.809
REMARK  Name = ligand_1
REMARK                            x       y       z     vdW  Elec       q    Type
REMARK                         _______ _______ _______ _____ _____    ______ ____
ROOT
ATOM      2  N   LIG    1       51.488  61.876  35.248  0.00  0.00    -0.305 N 
ATOM      3  C   LIG    1       52.552  61.069  34.659  0.00  0.00    +0.108 C 
ATOM      4  C   LIG    1       53.539  60.664  35.759  0.00  0.00    +0.094 C 
ATOM      5  N   LIG    1       52.818  60.034  36.877  0.00  0.00    -0.270 NA
ATOM     18  C   LIG    1       51.746  60.835  37.452  0.00  0.00    +0.094 C 
ATOM     19  C   LIG    1       50.762  61.232  36.353  0.00  0.00    +0.108 C 
ENDROOT
BRANCH   2   1
ATOM      1  C   LIG    1       50.702  62.659  34.332  0.00  0.00    +0.051 A 
ATOM     20  C   LIG    1       50.944  64.034  34.106  0.00  0.00    +0.031 A 
ATOM     21  C   LIG    1       51.881  64.746  34.850  0.00  0.00    +0.003 A 
ATOM     22  C   LIG    1       52.096  66.100  34.611  0.00  0.00    +0.000 A 
ATOM     23  C   LIG    1       51.376  66.776  33.625  0.00  0.00    +0.002 A 
ATOM     24  C   LIG    1       50.437  66.080  32.870  0.00  0.00    +0.019 A 
ATOM     25  C   LIG    1       50.228  64.726  33.111  0.00  0.00    +0.082 A 
ATOM     26  N   LIG    1       49.302  64.090  32.372  0.00  0.00    -0.241 NA
ATOM     27  C   LIG    1       49.034  62.781  32.558  0.00  0.00    +0.154 A 
ATOM     32  C   LIG    1       49.733  62.039  33.524  0.00  0.00    +0.038 A 
BRANCH  27  28
ATOM     28  C   LIG    1       47.991  62.218  31.632  0.00  0.00    +0.435 C 
ATOM     29  F   LIG    1       47.527  63.192  30.875  0.00  0.00    -0.164 F 
ATOM     30  F   LIG    1       47.005  61.582  32.235  0.00  0.00    -0.164 F 
ATOM     31  F   LIG    1       48.613  61.367  30.843  0.00  0.00    -0.164 F 
ENDBRANCH  27  28
ENDBRANCH   2   1
BRANCH   5   6
ATOM      6  C   LIG    1       53.774  59.671  37.960  0.00  0.00    +0.077 C 
ATOM      7  C   LIG    1       53.387  58.370  38.682  0.00  0.00    +0.044 C 
ATOM      8  C   LIG    1       54.707  57.822  39.225  0.00  0.00    +0.150 C 
ATOM     16  N   LIG    1       55.717  58.359  38.320  0.00  0.00    -0.209 NA
ATOM     17  C   LIG    1       55.172  59.354  37.406  0.00  0.00    +0.105 C 
BRANCH   8   9
ATOM      9  C   LIG    1       54.730  56.309  39.338  0.00  0.00    +0.242 C 
ATOM     10  O   LIG    1       54.791  55.626  38.316  0.00  0.00    -0.273 OA
ATOM     11  N   LIG    1       54.729  55.794  40.575  0.00  0.00    -0.268 N 
ATOM     12  C   LIG    1       54.645  56.672  41.750  0.00  0.00    +0.106 C 
ATOM     13  C   LIG    1       54.677  55.875  43.059  0.00  0.00    +0.081 C 
ATOM     14  S   LIG    1       54.290  54.257  42.584  0.00  0.00    -0.117 S 
ATOM     15  C   LIG    1       54.797  54.361  40.888  0.00  0.00    +0.152 C 
ENDBRANCH   8   9
ENDBRANCH   5   6
TORSDOF 4
ENDMDL
MODEL 8
REMARK VINA RESULT:    -7.027      5.050      8.823
REMARK INTER + INTRA:          -9.479
REMARK INTER:                  -8.548
REMARK INTRA:                  -0.931
REMARK UNBOUND:                -0.809
REMARK  Name = ligand_1
REMARK                            x       y       z     vdW  Elec       q    Type
REMARK                         _______ _______ _______ _____ _____    ______ ____
ROOT
ATOM      2  N   LIG    1       51.927  59.407  37.795  0.00  0.00    -0.305 N 
ATOM      3  C   LIG    1       51.774  58.402  36.748  0.00  0.00    +0.108 C 
ATOM      4  C   LIG    1       51.453  59.105  35.424  0.00  0.00    +0.094 C 
ATOM      5  N   LIG    1       52.453  60.148  35.152  0.00  0.00    -0.270 NA
ATOM     18  C   LIG    1       52.616  61.141  36.206  0.00  0.00    +0.094 C 
ATOM     19  C   LIG    1       52.941  60.436  37.521  0.00  0.00    +0.108 C 
ENDROOT
BRANCH   2   1
ATOM      1  C   LIG    1       51.841  58.931  39.150  0.00  0.00    +0.051 A 
ATOM     20  C   LIG    1       50.796  59.309  40.024  0.00  0.00    +0.031 A 
ATOM     21  C   LIG    1       49.849  60.265  39.665  0.00  0.00    +0.003 A 
ATOM     22  C   LIG    1       48.832  60.622  40.546  0.00  0.00    +0.000 A 
ATOM     23  C   LIG    1       48.742  60.036  41.810  0.00  0.00    +0.002 A 
ATOM     24  C   LIG    1       49.678  59.077  42.184  0.00  0.00    +0.019 A 
ATOM     25  C   LIG    1       50.691  58.721  41.299  0.00  0.00    +0.082 A 
ATOM     26  N   LIG    1       51.586  57.803  41.702  0.00  0.00    -0.241 NA
ATOM     27  C   LIG    1       52.603  57.418  40.903  0.00  0.00    +0.154 A 
ATOM     32  C   LIG    1       52.743  57.958  39.615  0.00  0.00    +0.038 A 
BRANCH  27  28
ATOM     28  C   LIG    1       53.498  56.364  41.495  0.00  0.00    +0.435 C 
ATOM     29  F   LIG    1       54.717  56.530  41.023  0.00  0.00    -0.164 F 
ATOM     30  F   LIG    1       53.087  55.124  41.307  0.00  0.00    -0.164 F 
ATOM     31  F   LIG    1       53.541  56.595  42.790  0.00  0.00    -0.164 F 
ENDBRANCH  27  28
ENDBRANCH   2   1
BRANCH   5   6
ATOM      6  C   LIG    1       52.123  60.854  33.882  0.00  0.00    +0.077 C 
ATOM      7  C   LIG    1       50.718  61.476  33.896  0.00  0.00    +0.044 C 
ATOM      8  C   LIG    1       50.800  62.639  32.907  0.00  0.00    +0.150 C 
ATOM     16  N   LIG    1       52.208  63.020  32.918  0.00  0.00    -0.209 NA
ATOM     17  C   LIG    1       53.035  62.069  33.649  0.00  0.00    +0.105 C 
BRANCH   8   9
ATOM      9  C   LIG    1       49.857  63.780  33.239  0.00  0.00    +0.242 C 
ATOM     10  O   LIG    1       50.189  64.615  34.079  0.00  0.00    -0.273 OA
ATOM     11  N   LIG    1       48.710  63.838  32.548  0.00  0.00    -0.268 N 
ATOM     12  C   LIG    1       48.375  62.799  31.565  0.00  0.00    +0.106 C 
ATOM     13  C   LIG    1       47.031  63.072  30.883  0.00  0.00    +0.081 C 
ATOM     14  S   LIG    1       46.249  64.214  31.922  0.00  0.00    -0.117 S 
ATOM     15  C   LIG    1       47.695  64.891  32.692  0.00  0.00    +0.152 C 
ENDBRANCH   8   9
ENDBRANCH   5   6
TORSDOF 4
ENDMDL
MODEL 9
REMARK VINA RESULT:    -6.923      5.444      9.587
REMARK INTER + INTRA:          -9.350
REMARK INTER:                  -8.702
REMARK INTRA:                  -0.648
REMARK UNBOUND:                -0.809
REMARK  Name = ligand_1
REMARK                            x       y       z     vdW  Elec       q    Type
REMARK                         _______ _______ _______ _____ _____    ______ ____
ROOT
ATOM      2  N   LIG    1       52.447  59.269  38.720  0.00  0.00    -0.305 N 
ATOM      3  C   LIG    1       51.545  59.172  37.577  0.00  0.00    +0.108 C 
ATOM      4  C   LIG    1       51.947  60.221  36.534  0.00  0.00    +0.094 C 
ATOM      5  N   LIG    1       53.378  60.095  36.217  0.00  0.00    -0.270 NA
ATOM     18  C   LIG    1       54.275  60.175  37.362  0.00  0.00    +0.094 C 
ATOM     19  C   LIG    1       53.874  59.126  38.396  0.00  0.00    +0.108 C 
ENDROOT
BRANCH   2   1
ATOM      1  C   LIG    1       51.997  58.650  39.939  0.00  0.00    +0.051 A 
ATOM     20  C   LIG    1       50.841  59.083  40.629  0.00  0.00    +0.031 A 
ATOM     21  C   LIG    1       50.134  60.217  40.238  0.00  0.00    +0.003 A 
ATOM     22  C   LIG    1       49.002  60.624  40.939  0.00  0.00    +0.000 A 
ATOM     23  C   LIG    1       48.554  59.909  42.050  0.00  0.00    +0.002 A 
ATOM     24  C   LIG    1       49.247  58.772  42.454  0.00  0.00    +0.019 A 
ATOM     25  C   LIG    1       50.376  58.367  41.749  0.00  0.00    +0.082 A 
ATOM     26  N   LIG    1       51.027  57.273  42.178  0.00  0.00    -0.241 NA
ATOM     27  C   LIG    1       52.138  56.829  41.553  0.00  0.00    +0.154 A 
ATOM     32  C   LIG    1       52.634  57.493  40.420  0.00  0.00    +0.038 A 
BRANCH  27  28
ATOM     28  C   LIG    1       52.729  55.578  42.143  0.00  0.00    +0.435 C 
ATOM     29  F   LIG    1       51.748  54.785  42.526  0.00  0.00    -0.164 F 
ATOM     30  F   LIG    1       53.578  55.784  43.133  0.00  0.00    -0.164 F 
ATOM     31  F   LIG    1       53.370  54.971  41.166  0.00  0.00    -0.164 F 
ENDBRANCH  27  28
ENDBRANCH   2   1
BRANCH   5   6
ATOM      6  C   LIG    1       53.776  61.136  35.228  0.00  0.00    +0.077 C 
ATOM      7  C   LIG    1       52.660  62.157  34.959  0.00  0.00    +0.044 C 
ATOM      8  C   LIG    1       53.393  63.422  34.513  0.00  0.00    +0.150 C 
ATOM     16  N   LIG    1       54.704  63.317  35.143  0.00  0.00    -0.209 NA
ATOM     17  C   LIG    1       54.925  62.012  35.752  0.00  0.00    +0.105 C 
BRANCH   8   9
ATOM      9  C   LIG    1       52.651  64.701  34.857  0.00  0.00    +0.242 C 
ATOM     10  O   LIG    1       52.665  65.116  36.015  0.00  0.00    -0.273 OA
ATOM     11  N   LIG    1       52.049  65.342  33.847  0.00  0.00    -0.268 N 
ATOM     12  C   LIG    1       52.066  64.781  32.489  0.00  0.00    +0.106 C 
ATOM     13  C   LIG    1       51.335  65.686  31.491  0.00  0.00    +0.081 C 
ATOM     14  S   LIG    1       50.371  66.726  32.482  0.00  0.00    -0.117 S 
ATOM     15  C   LIG    1       51.326  66.615  33.972  0.00  0.00    +0.152 C 
ENDBRANCH   8   9
ENDBRANCH   5   6
TORSDOF 4
ENDMDL
