MODEL 1
REMARK VINA RESULT:    -8.489      0.000      0.000
REMARK INTER + INTRA:         -11.183
REMARK INTER:                 -10.474
REMARK INTRA:                  -0.709
REMARK UNBOUND:                -0.709
REMARK  Name = ligand_1
REMARK                            x       y       z     vdW  Elec       q    Type
REMARK                         _______ _______ _______ _____ _____    ______ ____
ROOT
ATOM      2  N   LIG    1       50.193  61.894  38.292  0.00  0.00    -0.305 N 
ATOM      3  C   LIG    1       50.375  63.247  38.808  0.00  0.00    +0.108 C 
ATOM      4  C   LIG    1       51.603  63.874  38.140  0.00  0.00    +0.094 C 
ATOM      5  N   LIG    1       51.491  63.770  36.677  0.00  0.00    -0.270 NA
ATOM     18  C   LIG    1       51.292  62.421  36.165  0.00  0.00    +0.094 C 
ATOM     19  C   LIG    1       50.064  61.801  36.830  0.00  0.00    +0.108 C 
ENDROOT
BRANCH   2   1
ATOM      1  C   LIG    1       49.348  61.026  39.069  0.00  0.00    +0.051 A 
ATOM     20  C   LIG    1       49.861  59.953  39.836  0.00  0.00    +0.031 A 
ATOM     21  C   LIG    1       51.205  59.594  39.788  0.00  0.00    +0.003 A 
ATOM     22  C   LIG    1       51.683  58.531  40.549  0.00  0.00    +0.000 A 
ATOM     23  C   LIG    1       50.826  57.799  41.372  0.00  0.00    +0.002 A 
ATOM     24  C   LIG    1       49.480  58.145  41.434  0.00  0.00    +0.019 A 
ATOM     25  C   LIG    1       49.008  59.210  40.673  0.00  0.00    +0.082 A 
ATOM     26  N   LIG    1       47.699  59.505  40.747  0.00  0.00    -0.241 NA
ATOM     27  C   LIG    1       47.166  60.515  40.029  0.00  0.00    +0.154 A 
ATOM     32  C   LIG    1       47.975  61.301  39.193  0.00  0.00    +0.038 A 
BRANCH  27  28
ATOM     28  C   LIG    1       45.693  60.729  40.247  0.00  0.00    +0.435 C 
ATOM     29  F   LIG    1       45.274  59.883  41.167  0.00  0.00    -0.164 F 
ATOM     30  F   LIG    1       44.957  60.637  39.156  0.00  0.00    -0.164 F 
ATOM     31  F   LIG    1       45.561  61.943  40.737  0.00  0.00    -0.164 F 
ENDBRANCH  27  28
ENDBRANCH   2   1
BRANCH   5   6
ATOM      6  C   LIG    1       52.700  64.351  36.029  0.00  0.00    +0.077 C 
ATOM      7  C   LIG    1       53.973  64.161  36.868  0.00  0.00    +0.044 C 
ATOM      8  C   LIG    1       55.114  64.178  35.850  0.00  0.00    +0.150 C 
ATOM     16  N   LIG    1       54.494  63.721  34.611  0.00  0.00    -0.209 NA
ATOM     17  C   LIG    1       53.044  63.632  34.715  0.00  0.00    +0.105 C 
BRANCH   8   9
ATOM      9  C   LIG    1       56.313  63.351  36.275  0.00  0.00    +0.242 C 
ATOM     10  O   LIG    1       56.487  62.238  35.779  0.00  0.00    -0.273 OA
ATOM     11  N   LIG    1       57.156  63.913  37.151  0.00  0.00    -0.268 N 
ATOM     12  C   LIG    1       56.878  65.243  37.709  0.00  0.00    +0.106 C 
ATOM     13  C   LIG    1       57.980  65.697  38.673  0.00  0.00    +0.081 C 
ATOM     14  S   LIG    1       58.820  64.240  39.079  0.00  0.00    -0.117 S 
ATOM     15  C   LIG    1       58.393  63.291  37.643  0.00  0.00    +0.152 C 
ENDBRANCH   8   9
ENDBRANCH   5   6
TORSDOF 4
ENDMDL
MODEL 2
REMARK VINA RESULT:    -8.036      5.449      9.865
REMARK INTER + INTRA:         -10.624
REMARK INTER:                  -9.899
REMARK INTRA:                  -0.725
REMARK UNBOUND:                -0.709
REMARK  Name = ligand_1
REMARK                            x       y       z     vdW  Elec       q    Type
REMARK                         _______ _______ _______ _____ _____    ______ ____
ROOT
ATOM      2  N   LIG    1       51.125  62.699  37.397  0.00  0.00    -0.305 N 
ATOM      3  C   LIG    1       50.897  63.408  38.653  0.00  0.00    +0.108 C 
ATOM      4  C   LIG    1       49.709  62.767  39.379  0.00  0.00    +0.094 C 
ATOM      5  N   LIG    1       49.918  61.316  39.505  0.00  0.00    -0.270 NA
ATOM     18  C   LIG    1       50.162  60.614  38.252  0.00  0.00    +0.094 C 
ATOM     19  C   LIG    1       51.349  61.253  37.535  0.00  0.00    +0.108 C 
ENDROOT
BRANCH   2   1
ATOM      1  C   LIG    1       51.925  63.385  36.418  0.00  0.00    +0.051 A 
ATOM     20  C   LIG    1       51.361  64.020  35.286  0.00  0.00    +0.031 A 
ATOM     21  C   LIG    1       50.006  63.916  34.986  0.00  0.00    +0.003 A 
ATOM     22  C   LIG    1       49.478  64.548  33.863  0.00  0.00    +0.000 A 
ATOM     23  C   LIG    1       50.294  65.294  33.012  0.00  0.00    +0.002 A 
ATOM     24  C   LIG    1       51.650  65.411  33.298  0.00  0.00    +0.019 A 
ATOM     25  C   LIG    1       52.173  64.780  34.423  0.00  0.00    +0.082 A 
ATOM     26  N   LIG    1       53.491  64.903  34.659  0.00  0.00    -0.241 NA
ATOM     27  C   LIG    1       54.071  64.308  35.722  0.00  0.00    +0.154 A 
ATOM     32  C   LIG    1       53.305  63.555  36.626  0.00  0.00    +0.038 A 
BRANCH  27  28
ATOM     28  C   LIG    1       55.547  64.567  35.855  0.00  0.00    +0.435 C 
ATOM     29  F   LIG    1       56.203  63.504  35.436  0.00  0.00    -0.164 F 
ATOM     30  F   LIG    1       55.938  64.912  37.067  0.00  0.00    -0.164 F 
ATOM     31  F   LIG    1       55.828  65.555  35.032  0.00  0.00    -0.164 F 
ENDBRANCH  27  28
ENDBRANCH   2   1
BRANCH   5   6
ATOM      6  C   LIG    1       48.748  60.689  40.181  0.00  0.00    +0.077 C 
ATOM      7  C   LIG    1       48.375  59.325  39.580  0.00  0.00    +0.044 C 
ATOM      8  C   LIG    1       47.684  58.575  40.719  0.00  0.00    +0.150 C 
ATOM     16  N   LIG    1       48.247  59.165  41.929  0.00  0.00    -0.209 NA
ATOM     17  C   LIG    1       49.052  60.346  41.649  0.00  0.00    +0.105 C 
BRANCH   8   9
ATOM      9  C   LIG    1       47.851  57.070  40.639  0.00  0.00    +0.242 C 
ATOM     10  O   LIG    1       48.779  56.530  41.240  0.00  0.00    -0.273 OA
ATOM     11  N   LIG    1       46.929  56.394  39.938  0.00  0.00    -0.268 N 
ATOM     12  C   LIG    1       45.853  57.107  39.238  0.00  0.00    +0.106 C 
ATOM     13  C   LIG    1       44.905  56.141  38.518  0.00  0.00    +0.081 C 
ATOM     14  S   LIG    1       45.797  54.662  38.420  0.00  0.00    -0.117 S 
ATOM     15  C   LIG    1       46.894  54.934  39.786  0.00  0.00    +0.152 C 
ENDBRANCH   8   9
ENDBRANCH   5   6
TORSDOF 4
ENDMDL
MODEL 3
REMARK VINA RESULT:    -7.693      4.993      9.287
REMARK INTER + INTRA:         -10.201
REMARK INTER:                  -9.925
REMARK INTRA:                  -0.276
REMARK UNBOUND:                -0.709
REMARK  Name = ligand_1
REMARK                            x       y       z     vdW  Elec       q    Type
REMARK                         _______ _______ _______ _____ _____    ______ ____
ROOT
ATOM      2  N   LIG    1       50.976  62.391  37.193  0.00  0.00    -0.305 N 
ATOM      3  C   LIG    1       50.059  61.439  36.573  0.00  0.00    +0.108 C 
ATOM      4  C   LIG    1       49.605  60.424  37.627  0.00  0.00    +0.094 C 
ATOM      5  N   LIG    1       49.079  61.125  38.809  0.00  0.00    -0.270 NA
ATOM     18  C   LIG    1       49.989  62.087  39.416  0.00  0.00    +0.094 C 
ATOM     19  C   LIG    1       50.435  63.099  38.363  0.00  0.00    +0.108 C 
ENDROOT
BRANCH   2   1
ATOM      1  C   LIG    1       51.795  63.162  36.296  0.00  0.00    +0.051 A 
ATOM     20  C   LIG    1       51.254  63.894  35.213  0.00  0.00    +0.031 A 
ATOM     21  C   LIG    1       49.906  63.814  34.874  0.00  0.00    +0.003 A 
ATOM     22  C   LIG    1       49.400  64.541  33.800  0.00  0.00    +0.000 A 
ATOM     23  C   LIG    1       50.233  65.361  33.036  0.00  0.00    +0.002 A 
ATOM     24  C   LIG    1       51.582  65.454  33.362  0.00  0.00    +0.019 A 
ATOM     25  C   LIG    1       52.082  64.728  34.438  0.00  0.00    +0.082 A 
ATOM     26  N   LIG    1       53.394  64.832  34.713  0.00  0.00    -0.241 NA
ATOM     27  C   LIG    1       53.952  64.146  35.732  0.00  0.00    +0.154 A 
ATOM     32  C   LIG    1       53.169  63.315  36.549  0.00  0.00    +0.038 A 
BRANCH  27  28
ATOM     28  C   LIG    1       55.424  64.395  35.920  0.00  0.00    +0.435 C 
ATOM     29  F   LIG    1       56.079  63.282  35.656  0.00  0.00    -0.164 F 
ATOM     30  F   LIG    1       55.756  64.863  37.109  0.00  0.00    -0.164 F 
ATOM     31  F   LIG    1       55.771  65.283  35.013  0.00  0.00    -0.164 F 
ENDBRANCH  27  28
ENDBRANCH   2   1
BRANCH   5   6
ATOM      6  C   LIG    1       48.668  60.139  39.847  0.00  0.00    +0.077 C 
ATOM      7  C   LIG    1       49.453  58.821  39.759  0.00  0.00    +0.044 C 
ATOM      8  C   LIG    1       49.415  58.252  41.177  0.00  0.00    +0.150 C 
ATOM     16  N   LIG    1       49.264  59.426  42.030  0.00  0.00    -0.209 NA
ATOM     17  C   LIG    1       48.988  60.635  41.266  0.00  0.00    +0.105 C 
BRANCH   8   9
ATOM      9  C   LIG    1       50.625  57.402  41.518  0.00  0.00    +0.242 C 
ATOM     10  O   LIG    1       51.754  57.870  41.372  0.00  0.00    -0.273 OA
ATOM     11  N   LIG    1       50.387  56.180  42.012  0.00  0.00    -0.268 N 
ATOM     12  C   LIG    1       49.011  55.684  42.150  0.00  0.00    +0.106 C 
ATOM     13  C   LIG    1       48.971  54.275  42.751  0.00  0.00    +0.081 C 
ATOM     14  S   LIG    1       50.580  53.675  42.541  0.00  0.00    -0.117 S 
ATOM     15  C   LIG    1       51.423  55.232  42.445  0.00  0.00    +0.152 C 
ENDBRANCH   8   9
ENDBRANCH   5   6
TORSDOF 4
ENDMDL
MODEL 4
REMARK VINA RESULT:    -7.652      4.612      8.836
REMARK INTER + INTRA:         -10.150
REMARK INTER:                  -9.517
REMARK INTRA:                  -0.634
REMARK UNBOUND:                -0.709
REMARK  Name = ligand_1
REMARK                            x       y       z     vdW  Elec       q    Type
REMARK                         _______ _______ _______ _____ _____    ______ ____
ROOT
ATOM      2  N   LIG    1       50.711  63.051  36.561  0.00  0.00    -0.305 N 
ATOM      3  C   LIG    1       49.392  62.649  36.081  0.00  0.00    +0.108 C 
ATOM      4  C   LIG    1       48.903  61.455  36.909  0.00  0.00    +0.094 C 
ATOM      5  N   LIG    1       48.980  61.771  38.344  0.00  0.00    -0.270 NA
ATOM     18  C   LIG    1       50.294  62.188  38.817  0.00  0.00    +0.094 C 
ATOM     19  C   LIG    1       50.775  63.381  37.992  0.00  0.00    +0.108 C 
ENDROOT
BRANCH   2   1
ATOM      1  C   LIG    1       51.484  63.880  35.674  0.00  0.00    +0.051 A 
ATOM     20  C   LIG    1       52.896  63.829  35.624  0.00  0.00    +0.031 A 
ATOM     21  C   LIG    1       53.635  63.061  36.521  0.00  0.00    +0.003 A 
ATOM     22  C   LIG    1       55.025  63.033  36.453  0.00  0.00    +0.000 A 
ATOM     23  C   LIG    1       55.710  63.777  35.491  0.00  0.00    +0.002 A 
ATOM     24  C   LIG    1       54.987  64.549  34.586  0.00  0.00    +0.019 A 
ATOM     25  C   LIG    1       53.598  64.571  34.655  0.00  0.00    +0.082 A 
ATOM     26  N   LIG    1       52.936  65.340  33.774  0.00  0.00    -0.241 NA
ATOM     27  C   LIG    1       51.589  65.423  33.790  0.00  0.00    +0.154 A 
ATOM     32  C   LIG    1       50.839  64.689  34.722  0.00  0.00    +0.038 A 
BRANCH  27  28
ATOM     28  C   LIG    1       51.005  66.306  32.721  0.00  0.00    +0.435 C 
ATOM     29  F   LIG    1       51.237  67.564  33.037  0.00  0.00    -0.164 F 
ATOM     30  F   LIG    1       49.721  66.110  32.487  0.00  0.00    -0.164 F 
ATOM     31  F   LIG    1       51.672  66.046  31.617  0.00  0.00    -0.164 F 
ENDBRANCH  27  28
ENDBRANCH   2   1
BRANCH   5   6
ATOM      6  C   LIG    1       48.536  60.599  39.149  0.00  0.00    +0.077 C 
ATOM      7  C   LIG    1       49.546  59.442  39.122  0.00  0.00    +0.044 C 
ATOM      8  C   LIG    1       49.300  58.682  40.426  0.00  0.00    +0.150 C 
ATOM     16  N   LIG    1       48.756  59.690  41.329  0.00  0.00    -0.209 NA
ATOM     17  C   LIG    1       48.441  60.937  40.646  0.00  0.00    +0.105 C 
BRANCH   8   9
ATOM      9  C   LIG    1       50.539  57.988  40.961  0.00  0.00    +0.242 C 
ATOM     10  O   LIG    1       51.634  58.538  40.858  0.00  0.00    -0.273 OA
ATOM     11  N   LIG    1       50.356  56.808  41.570  0.00  0.00    -0.268 N 
ATOM     12  C   LIG    1       49.018  56.206  41.647  0.00  0.00    +0.106 C 
ATOM     13  C   LIG    1       49.037  54.871  42.400  0.00  0.00    +0.081 C 
ATOM     14  S   LIG    1       50.703  54.402  42.394  0.00  0.00    -0.117 S 
ATOM     15  C   LIG    1       51.421  56.011  42.193  0.00  0.00    +0.152 C 
ENDBRANCH   8   9
ENDBRANCH   5   6
TORSDOF 4
ENDMDL
MODEL 5
REMARK VINA RESULT:    -7.604      6.586      9.307
REMARK INTER + INTRA:         -10.091
REMARK INTER:                  -9.160
REMARK INTRA:                  -0.931
REMARK UNBOUND:                -0.709
REMARK  Name = ligand_1
REMARK                            x       y       z     vdW  Elec       q    Type
REMARK                         _______ _______ _______ _____ _____    ______ ____
ROOT
ATOM      2  N   LIG    1       52.408  63.262  35.603  0.00  0.00    -0.305 N 
ATOM      3  C   LIG    1       52.481  64.229  34.511  0.00  0.00    +0.108 C 
ATOM      4  C   LIG    1       51.205  64.127  33.668  0.00  0.00    +0.094 C 
ATOM      5  N   LIG    1       50.020  64.242  34.531  0.00  0.00    -0.270 NA
ATOM     18  C   LIG    1       49.957  63.287  35.629  0.00  0.00    +0.094 C 
ATOM     19  C   LIG    1       51.227  63.396  36.469  0.00  0.00    +0.108 C 
ENDROOT
BRANCH   2   1
ATOM      1  C   LIG    1       53.651  62.942  36.252  0.00  0.00    +0.051 A 
ATOM     20  C   LIG    1       54.096  61.611  36.427  0.00  0.00    +0.031 A 
ATOM     21  C   LIG    1       53.298  60.520  36.091  0.00  0.00    +0.003 A 
ATOM     22  C   LIG    1       53.759  59.220  36.279  0.00  0.00    +0.000 A 
ATOM     23  C   LIG    1       55.026  58.980  36.812  0.00  0.00    +0.002 A 
ATOM     24  C   LIG    1       55.838  60.058  37.151  0.00  0.00    +0.019 A 
ATOM     25  C   LIG    1       55.375  61.356  36.959  0.00  0.00    +0.082 A 
ATOM     26  N   LIG    1       56.181  62.371  37.313  0.00  0.00    -0.241 NA
ATOM     27  C   LIG    1       55.794  63.656  37.169  0.00  0.00    +0.154 A 
ATOM     32  C   LIG    1       54.538  63.967  36.626  0.00  0.00    +0.038 A 
BRANCH  27  28
ATOM     28  C   LIG    1       56.824  64.669  37.587  0.00  0.00    +0.435 C 
ATOM     29  F   LIG    1       56.687  65.746  36.840  0.00  0.00    -0.164 F 
ATOM     30  F   LIG    1       58.069  64.233  37.557  0.00  0.00    -0.164 F 
ATOM     31  F   LIG    1       56.532  65.008  38.825  0.00  0.00    -0.164 F 
ENDBRANCH  27  28
ENDBRANCH   2   1
BRANCH   5   6
ATOM      6  C   LIG    1       48.780  64.110  33.715  0.00  0.00    +0.077 C 
ATOM      7  C   LIG    1       49.035  63.457  32.348  0.00  0.00    +0.044 C 
ATOM      8  C   LIG    1       47.699  62.816  31.970  0.00  0.00    +0.150 C 
ATOM     16  N   LIG    1       47.055  62.549  33.251  0.00  0.00    -0.209 NA
ATOM     17  C   LIG    1       47.766  63.157  34.368  0.00  0.00    +0.105 C 
BRANCH   8   9
ATOM      9  C   LIG    1       47.847  61.587  31.093  0.00  0.00    +0.242 C 
ATOM     10  O   LIG    1       48.629  60.697  31.424  0.00  0.00    -0.273 OA
ATOM     11  N   LIG    1       47.064  61.521  30.006  0.00  0.00    -0.268 N 
ATOM     12  C   LIG    1       46.160  62.627  29.668  0.00  0.00    +0.106 C 
ATOM     13  C   LIG    1       45.350  62.333  28.401  0.00  0.00    +0.081 C 
ATOM     14  S   LIG    1       46.212  61.044  27.633  0.00  0.00    -0.117 S 
ATOM     15  C   LIG    1       47.028  60.393  29.065  0.00  0.00    +0.152 C 
ENDBRANCH   8   9
ENDBRANCH   5   6
TORSDOF 4
ENDMDL
MODEL 6
REMARK VINA RESULT:    -7.545      5.283      7.024
REMARK INTER + INTRA:         -10.018
REMARK INTER:                  -9.430
REMARK INTRA:                  -0.588
REMARK UNBOUND:                -0.709
REMARK  Name = ligand_1
REMARK                            x       y       z     vdW  Elec       q    Type
REMARK                         _______ _______ _______ _____ _____    ______ ____
ROOT
ATOM      2  N   LIG    1       53.548  57.928  38.724  0.00  0.00    -0.305 N 
ATOM      3  C   LIG    1       54.473  59.030  38.478  0.00  0.00    +0.108 C 
ATOM      4  C   LIG    1       54.059  59.752  37.192  0.00  0.00    +0.094 C 
ATOM      5  N   LIG    1       52.638  60.129  37.260  0.00  0.00    -0.270 NA
ATOM     18  C   LIG    1       51.718  59.031  37.523  0.00  0.00    +0.094 C 
ATOM     19  C   LIG    1       52.132  58.317  38.807  0.00  0.00    +0.108 C 
ENDROOT
BRANCH   2   1
ATOM      1  C   LIG    1       53.994  56.917  39.646  0.00  0.00    +0.051 A 
ATOM     20  C   LIG    1       54.823  55.842  39.251  0.00  0.00    +0.031 A 
ATOM     21  C   LIG    1       55.160  55.626  37.917  0.00  0.00    +0.003 A 
ATOM     22  C   LIG    1       55.974  54.557  37.555  0.00  0.00    +0.000 A 
ATOM     23  C   LIG    1       56.467  53.675  38.518  0.00  0.00    +0.002 A 
ATOM     24  C   LIG    1       56.142  53.877  39.856  0.00  0.00    +0.019 A 
ATOM     25  C   LIG    1       55.331  54.949  40.213  0.00  0.00    +0.082 A 
ATOM     26  N   LIG    1       55.026  55.102  41.513  0.00  0.00    -0.241 NA
ATOM     27  C   LIG    1       54.233  56.110  41.933  0.00  0.00    +0.154 A 
ATOM     32  C   LIG    1       53.716  57.041  41.018  0.00  0.00    +0.038 A 
BRANCH  27  28
ATOM     28  C   LIG    1       54.013  56.154  43.421  0.00  0.00    +0.435 C 
ATOM     29  F   LIG    1       54.915  56.951  43.958  0.00  0.00    -0.164 F 
ATOM     30  F   LIG    1       54.018  54.975  44.013  0.00  0.00    -0.164 F 
ATOM     31  F   LIG    1       52.834  56.708  43.607  0.00  0.00    -0.164 F 
ENDBRANCH  27  28
ENDBRANCH   2   1
BRANCH   5   6
ATOM      6  C   LIG    1       52.227  60.802  35.996  0.00  0.00    +0.077 C 
ATOM      7  C   LIG    1       51.541  62.155  36.239  0.00  0.00    +0.044 C 
ATOM      8  C   LIG    1       51.795  62.954  34.961  0.00  0.00    +0.150 C 
ATOM     16  N   LIG    1       53.029  62.389  34.425  0.00  0.00    -0.209 NA
ATOM     17  C   LIG    1       53.439  61.182  35.131  0.00  0.00    +0.105 C 
BRANCH   8   9
ATOM      9  C   LIG    1       51.859  64.452  35.189  0.00  0.00    +0.242 C 
ATOM     10  O   LIG    1       52.139  64.884  36.306  0.00  0.00    -0.273 OA
ATOM     11  N   LIG    1       51.646  65.236  34.123  0.00  0.00    -0.268 N 
ATOM     12  C   LIG    1       51.306  64.650  32.819  0.00  0.00    +0.106 C 
ATOM     13  C   LIG    1       51.123  65.725  31.742  0.00  0.00    +0.081 C 
ATOM     14  S   LIG    1       50.899  67.190  32.635  0.00  0.00    -0.117 S 
ATOM     15  C   LIG    1       51.712  66.704  34.133  0.00  0.00    +0.152 C 
ENDBRANCH   8   9
ENDBRANCH   5   6
TORSDOF 4
ENDMDL
MODEL 7
REMARK VINA RESULT:    -7.518      5.680      7.380
REMARK INTER + INTRA:          -9.985
REMARK INTER:                  -9.913
REMARK INTRA:                  -0.072
REMARK UNBOUND:                -0.709
REMARK  Name = ligand_1
REMARK                            x       y       z     vdW  Elec       q    Type
REMARK                         _______ _______ _______ _____ _____    ______ ____
ROOT
ATOM      2  N   LIG    1       54.641  58.418  38.288  0.00  0.00    -0.305 N 
ATOM      3  C   LIG    1       53.375  58.476  37.564  0.00  0.00    +0.108 C 
ATOM      4  C   LIG    1       53.118  59.921  37.123  0.00  0.00    +0.094 C 
ATOM      5  N   LIG    1       54.284  60.441  36.392  0.00  0.00    -0.270 NA
ATOM     18  C   LIG    1       55.550  60.366  37.110  0.00  0.00    +0.094 C 
ATOM     19  C   LIG    1       55.804  58.924  37.543  0.00  0.00    +0.108 C 
ENDROOT
BRANCH   2   1
ATOM      1  C   LIG    1       54.855  57.251  39.101  0.00  0.00    +0.051 A 
ATOM     20  C   LIG    1       55.560  56.117  38.633  0.00  0.00    +0.031 A 
ATOM     21  C   LIG    1       55.986  56.012  37.312  0.00  0.00    +0.003 A 
ATOM     22  C   LIG    1       56.673  54.883  36.876  0.00  0.00    +0.000 A 
ATOM     23  C   LIG    1       56.947  53.830  37.750  0.00  0.00    +0.002 A 
ATOM     24  C   LIG    1       56.531  53.920  39.075  0.00  0.00    +0.019 A 
ATOM     25  C   LIG    1       55.847  55.051  39.507  0.00  0.00    +0.082 A 
ATOM     26  N   LIG    1       55.448  55.095  40.789  0.00  0.00    -0.241 NA
ATOM     27  C   LIG    1       54.767  56.153  41.276  0.00  0.00    +0.154 A 
ATOM     32  C   LIG    1       54.471  57.252  40.454  0.00  0.00    +0.038 A 
BRANCH  27  28
ATOM     28  C   LIG    1       54.418  56.055  42.736  0.00  0.00    +0.435 C 
ATOM     29  F   LIG    1       54.848  54.897  43.197  0.00  0.00    -0.164 F 
ATOM     30  F   LIG    1       53.138  56.222  43.008  0.00  0.00    -0.164 F 
ATOM     31  F   LIG    1       55.100  57.000  43.347  0.00  0.00    -0.164 F 
ENDBRANCH  27  28
ENDBRANCH   2   1
BRANCH   5   6
ATOM      6  C   LIG    1       54.047  61.856  35.992  0.00  0.00    +0.077 C 
ATOM      7  C   LIG    1       53.416  61.982  34.596  0.00  0.00    +0.044 C 
ATOM      8  C   LIG    1       52.665  63.313  34.630  0.00  0.00    +0.150 C 
ATOM     16  N   LIG    1       52.346  63.509  36.040  0.00  0.00    -0.209 NA
ATOM     17  C   LIG    1       53.013  62.541  36.900  0.00  0.00    +0.105 C 
BRANCH   8   9
ATOM      9  C   LIG    1       51.452  63.344  33.719  0.00  0.00    +0.242 C 
ATOM     10  O   LIG    1       50.863  62.295  33.459  0.00  0.00    -0.273 OA
ATOM     11  N   LIG    1       51.055  64.546  33.279  0.00  0.00    -0.268 N 
ATOM     12  C   LIG    1       51.813  65.756  33.624  0.00  0.00    +0.106 C 
ATOM     13  C   LIG    1       51.174  67.016  33.032  0.00  0.00    +0.081 C 
ATOM     14  S   LIG    1       50.121  66.420  31.794  0.00  0.00    -0.117 S 
ATOM     15  C   LIG    1       49.879  64.783  32.432  0.00  0.00    +0.152 C 
ENDBRANCH   8   9
ENDBRANCH   5   6
TORSDOF 4
ENDMDL
MODEL 8
REMARK VINA RESULT:    -7.367      6.206      9.708
REMARK INTER + INTRA:          -9.798
REMARK INTER:                  -9.647
REMARK INTRA:                  -0.152
REMARK UNBOUND:                -0.709
REMARK  Name = ligand_1
REMARK                            x       y       z     vdW  Elec       q    Type
REMARK                         _______ _______ _______ _____ _____    ______ ____
ROOT
ATOM      2  N   LIG    1       55.432  60.589  36.886  0.00  0.00    -0.305 N 
ATOM      3  C   LIG    1       56.322  59.657  36.200  0.00  0.00    +0.108 C 
ATOM      4  C   LIG    1       56.155  58.263  36.813  0.00  0.00    +0.094 C 
ATOM      5  N   LIG    1       54.734  57.883  36.823  0.00  0.00    -0.270 NA
ATOM     18  C   LIG    1       53.845  58.822  37.494  0.00  0.00    +0.094 C 
ATOM     19  C   LIG    1       54.011  60.208  36.876  0.00  0.00    +0.108 C 
ENDROOT
BRANCH   2   1
ATOM      1  C   LIG    1       55.726  61.987  36.721  0.00  0.00    +0.051 A 
ATOM     20  C   LIG    1       55.050  62.800  35.782  0.00  0.00    +0.031 A 
ATOM     21  C   LIG    1       54.140  62.268  34.871  0.00  0.00    +0.003 A 
ATOM     22  C   LIG    1       53.492  63.090  33.954  0.00  0.00    +0.000 A 
ATOM     23  C   LIG    1       53.742  64.463  33.922  0.00  0.00    +0.002 A 
ATOM     24  C   LIG    1       54.646  65.012  34.826  0.00  0.00    +0.019 A 
ATOM     25  C   LIG    1       55.289  64.187  35.743  0.00  0.00    +0.082 A 
ATOM     26  N   LIG    1       56.167  64.751  36.590  0.00  0.00    -0.241 NA
ATOM     27  C   LIG    1       56.839  64.012  37.497  0.00  0.00    +0.154 A 
ATOM     32  C   LIG    1       56.624  62.628  37.592  0.00  0.00    +0.038 A 
BRANCH  27  28
ATOM     28  C   LIG    1       57.762  64.801  38.386  0.00  0.00    +0.435 C 
ATOM     29  F   LIG    1       57.531  64.467  39.639  0.00  0.00    -0.164 F 
ATOM     30  F   LIG    1       57.691  66.110  38.229  0.00  0.00    -0.164 F 
ATOM     31  F   LIG    1       58.984  64.413  38.092  0.00  0.00    -0.164 F 
ENDBRANCH  27  28
ENDBRANCH   2   1
BRANCH   5   6
ATOM      6  C   LIG    1       54.569  56.541  37.450  0.00  0.00    +0.077 C 
ATOM      7  C   LIG    1       54.613  56.593  38.984  0.00  0.00    +0.044 C 
ATOM      8  C   LIG    1       53.805  55.376  39.436  0.00  0.00    +0.150 C 
ATOM     16  N   LIG    1       52.877  55.134  38.337  0.00  0.00    -0.209 NA
ATOM     17  C   LIG    1       53.180  55.945  37.166  0.00  0.00    +0.105 C 
BRANCH   8   9
ATOM      9  C   LIG    1       53.125  55.569  40.778  0.00  0.00    +0.242 C 
ATOM     10  O   LIG    1       52.067  56.196  40.837  0.00  0.00    -0.273 OA
ATOM     11  N   LIG    1       53.705  54.993  41.840  0.00  0.00    -0.268 N 
ATOM     12  C   LIG    1       54.974  54.266  41.696  0.00  0.00    +0.106 C 
ATOM     13  C   LIG    1       55.445  53.675  43.029  0.00  0.00    +0.081 C 
ATOM     14  S   LIG    1       54.543  54.543  44.224  0.00  0.00    -0.117 S 
ATOM     15  C   LIG    1       53.172  55.026  43.209  0.00  0.00    +0.152 C 
ENDBRANCH   8   9
ENDBRANCH   5   6
TORSDOF 4
ENDMDL
MODEL 9
REMARK VINA RESULT:    -7.301      5.311      6.890
REMARK INTER + INTRA:          -9.717
REMARK INTER:                  -9.330
REMARK INTRA:                  -0.387
REMARK UNBOUND:                -0.709
REMARK  Name = ligand_1
REMARK                            x       y       z     vdW  Elec       q    Type
REMARK                         _______ _______ _______ _____ _____    ______ ____
ROOT
ATOM      2  N   LIG    1       53.786  59.003  38.260  0.00  0.00    -0.305 N 
ATOM      3  C   LIG    1       52.927  58.837  37.091  0.00  0.00    +0.108 C 
ATOM      4  C   LIG    1       52.838  60.173  36.345  0.00  0.00    +0.094 C 
ATOM      5  N   LIG    1       54.187  60.686  36.065  0.00  0.00    -0.270 NA
ATOM     18  C   LIG    1       55.048  60.834  37.231  0.00  0.00    +0.094 C 
ATOM     19  C   LIG    1       55.138  59.500  37.969  0.00  0.00    +0.108 C 
ENDROOT
BRANCH   2   1
ATOM      1  C   LIG    1       53.676  57.990  39.277  0.00  0.00    +0.051 A 
ATOM     20  C   LIG    1       52.590  57.935  40.180  0.00  0.00    +0.031 A 
ATOM     21  C   LIG    1       51.618  58.931  40.221  0.00  0.00    +0.003 A 
ATOM     22  C   LIG    1       50.561  58.855  41.124  0.00  0.00    +0.000 A 
ATOM     23  C   LIG    1       50.454  57.782  42.011  0.00  0.00    +0.002 A 
ATOM     24  C   LIG    1       51.415  56.777  41.982  0.00  0.00    +0.019 A 
ATOM     25  C   LIG    1       52.468  56.856  41.076  0.00  0.00    +0.082 A 
ATOM     26  N   LIG    1       53.385  55.873  41.089  0.00  0.00    -0.241 NA
ATOM     27  C   LIG    1       54.441  55.890  40.249  0.00  0.00    +0.154 A 
ATOM     32  C   LIG    1       54.600  56.932  39.322  0.00  0.00    +0.038 A 
BRANCH  27  28
ATOM     28  C   LIG    1       55.357  54.703  40.374  0.00  0.00    +0.435 C 
ATOM     29  F   LIG    1       55.561  54.458  41.653  0.00  0.00    -0.164 F 
ATOM     30  F   LIG    1       56.504  54.824  39.732  0.00  0.00    -0.164 F 
ATOM     31  F   LIG    1       54.707  53.675  39.873  0.00  0.00    -0.164 F 
ENDBRANCH  27  28
ENDBRANCH   2   1
BRANCH   5   6
ATOM      6  C   LIG    1       54.100  62.000  35.369  0.00  0.00    +0.077 C 
ATOM      7  C   LIG    1       53.156  61.969  34.157  0.00  0.00    +0.044 C 
ATOM      8  C   LIG    1       52.680  63.414  34.000  0.00  0.00    +0.150 C 
ATOM     16  N   LIG    1       52.781  63.972  35.344  0.00  0.00    -0.209 NA
ATOM     17  C   LIG    1       53.474  63.081  36.265  0.00  0.00    +0.105 C 
BRANCH   8   9
ATOM      9  C   LIG    1       51.294  63.529  33.394  0.00  0.00    +0.242 C 
ATOM     10  O   LIG    1       50.597  62.521  33.279  0.00  0.00    -0.273 OA
ATOM     11  N   LIG    1       50.882  64.758  33.053  0.00  0.00    -0.268 N 
ATOM     12  C   LIG    1       51.774  65.915  33.211  0.00  0.00    +0.106 C 
ATOM     13  C   LIG    1       51.095  67.219  32.778  0.00  0.00    +0.081 C 
ATOM     14  S   LIG    1       49.750  66.703  31.818  0.00  0.00    -0.117 S 
ATOM     15  C   LIG    1       49.560  65.077  32.499  0.00  0.00    +0.152 C 
ENDBRANCH   8   9
ENDBRANCH   5   6
TORSDOF 4
ENDMDL
