MODEL 1
REMARK VINA RESULT:    -8.486      0.000      0.000
REMARK INTER + INTRA:         -11.169
REMARK INTER:                 -10.471
REMARK INTRA:                  -0.698
REMARK UNBOUND:                -0.698
REMARK  Name = ligand_1
REMARK                            x       y       z     vdW  Elec       q    Type
REMARK                         _______ _______ _______ _____ _____    ______ ____
ROOT
ATOM      2  N   LIG    1       50.229  61.922  38.292  0.00  0.00    -0.305 N 
ATOM      3  C   LIG    1       50.398  63.275  38.814  0.00  0.00    +0.108 C 
ATOM      4  C   LIG    1       51.625  63.914  38.156  0.00  0.00    +0.094 C 
ATOM      5  N   LIG    1       51.523  63.813  36.692  0.00  0.00    -0.270 NA
ATOM     18  C   LIG    1       51.338  62.464  36.175  0.00  0.00    +0.094 C 
ATOM     19  C   LIG    1       50.111  61.833  36.829  0.00  0.00    +0.108 C 
ENDROOT
BRANCH   2   1
ATOM      1  C   LIG    1       49.386  61.045  39.062  0.00  0.00    +0.051 A 
ATOM     20  C   LIG    1       49.899  59.953  39.801  0.00  0.00    +0.031 A 
ATOM     21  C   LIG    1       51.240  59.585  39.731  0.00  0.00    +0.003 A 
ATOM     22  C   LIG    1       51.718  58.503  40.465  0.00  0.00    +0.000 A 
ATOM     23  C   LIG    1       50.864  57.761  41.282  0.00  0.00    +0.002 A 
ATOM     24  C   LIG    1       49.522  58.116  41.366  0.00  0.00    +0.019 A 
ATOM     25  C   LIG    1       49.049  59.200  40.633  0.00  0.00    +0.082 A 
ATOM     26  N   LIG    1       47.744  59.503  40.727  0.00  0.00    -0.241 NA
ATOM     27  C   LIG    1       47.211  60.532  40.035  0.00  0.00    +0.154 A 
ATOM     32  C   LIG    1       48.017  61.328  39.206  0.00  0.00    +0.038 A 
BRANCH  27  28
ATOM     28  C   LIG    1       45.742  60.752  40.274  0.00  0.00    +0.435 C 
ATOM     29  F   LIG    1       45.363  60.011  41.295  0.00  0.00    -0.164 F 
ATOM     30  F   LIG    1       44.975  60.531  39.223  0.00  0.00    -0.164 F 
ATOM     31  F   LIG    1       45.608  62.012  40.629  0.00  0.00    -0.164 F 
ENDBRANCH  27  28
ENDBRANCH   2   1
BRANCH   5   6
ATOM      6  C   LIG    1       52.731  64.405  36.054  0.00  0.00    +0.077 C 
ATOM      7  C   LIG    1       54.007  64.191  36.883  0.00  0.00    +0.044 C 
ATOM      8  C   LIG    1       55.144  64.229  35.862  0.00  0.00    +0.150 C 
ATOM     16  N   LIG    1       54.519  63.803  34.614  0.00  0.00    -0.209 NA
ATOM     17  C   LIG    1       53.069  63.717  34.721  0.00  0.00    +0.105 C 
BRANCH   8   9
ATOM      9  C   LIG    1       56.342  63.389  36.263  0.00  0.00    +0.242 C 
ATOM     10  O   LIG    1       56.515  62.291  35.735  0.00  0.00    -0.273 OA
ATOM     11  N   LIG    1       57.186  63.924  37.156  0.00  0.00    -0.268 N 
ATOM     12  C   LIG    1       56.909  65.238  37.752  0.00  0.00    +0.106 C 
ATOM     13  C   LIG    1       58.010  65.662  38.729  0.00  0.00    +0.081 C 
ATOM     14  S   LIG    1       58.849  64.193  39.092  0.00  0.00    -0.117 S 
ATOM     15  C   LIG    1       58.422  63.287  37.629  0.00  0.00    +0.152 C 
ENDBRANCH   8   9
ENDBRANCH   5   6
TORSDOF 4
ENDMDL
MODEL 2
REMARK VINA RESULT:    -8.092      5.447      9.880
REMARK INTER + INTRA:         -10.683
REMARK INTER:                  -9.852
REMARK INTRA:                  -0.831
REMARK UNBOUND:                -0.698
REMARK  Name = ligand_1
REMARK                            x       y       z     vdW  Elec       q    Type
REMARK                         _______ _______ _______ _____ _____    ______ ____
ROOT
ATOM      2  N   LIG    1       51.184  62.610  37.415  0.00  0.00    -0.305 N 
ATOM      3  C   LIG    1       50.812  63.325  38.633  0.00  0.00    +0.108 C 
ATOM      4  C   LIG    1       49.631  62.605  39.293  0.00  0.00    +0.094 C 
ATOM      5  N   LIG    1       49.946  61.180  39.473  0.00  0.00    -0.270 NA
ATOM     18  C   LIG    1       50.333  60.472  38.260  0.00  0.00    +0.094 C 
ATOM     19  C   LIG    1       51.513  61.190  37.608  0.00  0.00    +0.108 C 
ENDROOT
BRANCH   2   1
ATOM      1  C   LIG    1       51.993  63.338  36.474  0.00  0.00    +0.051 A 
ATOM     20  C   LIG    1       51.442  64.005  35.355  0.00  0.00    +0.031 A 
ATOM     21  C   LIG    1       50.093  63.897  35.027  0.00  0.00    +0.003 A 
ATOM     22  C   LIG    1       49.578  64.561  33.917  0.00  0.00    +0.000 A 
ATOM     23  C   LIG    1       50.401  65.345  33.107  0.00  0.00    +0.002 A 
ATOM     24  C   LIG    1       51.750  65.466  33.421  0.00  0.00    +0.019 A 
ATOM     25  C   LIG    1       52.260  64.803  34.533  0.00  0.00    +0.082 A 
ATOM     26  N   LIG    1       53.572  64.931  34.796  0.00  0.00    -0.241 NA
ATOM     27  C   LIG    1       54.140  64.307  35.848  0.00  0.00    +0.154 A 
ATOM     32  C   LIG    1       53.367  63.515  36.712  0.00  0.00    +0.038 A 
BRANCH  27  28
ATOM     28  C   LIG    1       55.611  64.576  36.016  0.00  0.00    +0.435 C 
ATOM     29  F   LIG    1       55.852  64.833  37.286  0.00  0.00    -0.164 F 
ATOM     30  F   LIG    1       56.085  65.537  35.245  0.00  0.00    -0.164 F 
ATOM     31  F   LIG    1       56.232  63.456  35.714  0.00  0.00    -0.164 F 
ENDBRANCH  27  28
ENDBRANCH   2   1
BRANCH   5   6
ATOM      6  C   LIG    1       48.786  60.474  40.085  0.00  0.00    +0.077 C 
ATOM      7  C   LIG    1       48.532  59.094  39.459  0.00  0.00    +0.044 C 
ATOM      8  C   LIG    1       47.833  58.293  40.557  0.00  0.00    +0.150 C 
ATOM     16  N   LIG    1       48.295  58.906  41.797  0.00  0.00    -0.209 NA
ATOM     17  C   LIG    1       49.037  60.138  41.565  0.00  0.00    +0.105 C 
BRANCH   8   9
ATOM      9  C   LIG    1       48.099  56.801  40.477  0.00  0.00    +0.242 C 
ATOM     10  O   LIG    1       49.158  56.351  40.912  0.00  0.00    -0.273 OA
ATOM     11  N   LIG    1       47.123  56.038  39.966  0.00  0.00    -0.268 N 
ATOM     12  C   LIG    1       45.887  56.647  39.456  0.00  0.00    +0.106 C 
ATOM     13  C   LIG    1       44.905  55.591  38.937  0.00  0.00    +0.081 C 
ATOM     14  S   LIG    1       45.877  54.178  38.710  0.00  0.00    -0.117 S 
ATOM     15  C   LIG    1       47.175  54.574  39.851  0.00  0.00    +0.152 C 
ENDBRANCH   8   9
ENDBRANCH   5   6
TORSDOF 4
ENDMDL
MODEL 3
REMARK VINA RESULT:    -7.724      4.966      9.275
REMARK INTER + INTRA:         -10.228
REMARK INTER:                  -9.899
REMARK INTRA:                  -0.329
REMARK UNBOUND:                -0.698
REMARK  Name = ligand_1
REMARK                            x       y       z     vdW  Elec       q    Type
REMARK                         _______ _______ _______ _____ _____    ______ ____
ROOT
ATOM      2  N   LIG    1       51.032  62.356  37.129  0.00  0.00    -0.305 N 
ATOM      3  C   LIG    1       50.208  61.330  36.496  0.00  0.00    +0.108 C 
ATOM      4  C   LIG    1       49.757  60.325  37.562  0.00  0.00    +0.094 C 
ATOM      5  N   LIG    1       49.127  61.031  38.687  0.00  0.00    -0.270 NA
ATOM     18  C   LIG    1       49.944  62.066  39.306  0.00  0.00    +0.094 C 
ATOM     19  C   LIG    1       50.386  63.068  38.242  0.00  0.00    +0.108 C 
ENDROOT
BRANCH   2   1
ATOM      1  C   LIG    1       51.851  63.145  36.248  0.00  0.00    +0.051 A 
ATOM     20  C   LIG    1       51.313  63.890  35.173  0.00  0.00    +0.031 A 
ATOM     21  C   LIG    1       49.967  63.809  34.825  0.00  0.00    +0.003 A 
ATOM     22  C   LIG    1       49.464  64.549  33.759  0.00  0.00    +0.000 A 
ATOM     23  C   LIG    1       50.296  65.385  33.013  0.00  0.00    +0.002 A 
ATOM     24  C   LIG    1       51.643  65.480  33.348  0.00  0.00    +0.019 A 
ATOM     25  C   LIG    1       52.141  64.740  34.416  0.00  0.00    +0.082 A 
ATOM     26  N   LIG    1       53.450  64.847  34.699  0.00  0.00    -0.241 NA
ATOM     27  C   LIG    1       54.007  64.149  35.711  0.00  0.00    +0.154 A 
ATOM     32  C   LIG    1       53.223  63.301  36.511  0.00  0.00    +0.038 A 
BRANCH  27  28
ATOM     28  C   LIG    1       55.476  64.402  35.912  0.00  0.00    +0.435 C 
ATOM     29  F   LIG    1       55.791  65.544  35.334  0.00  0.00    -0.164 F 
ATOM     30  F   LIG    1       56.264  63.431  35.491  0.00  0.00    -0.164 F 
ATOM     31  F   LIG    1       55.655  64.552  37.207  0.00  0.00    -0.164 F 
ENDBRANCH  27  28
ENDBRANCH   2   1
BRANCH   5   6
ATOM      6  C   LIG    1       48.718  60.057  39.738  0.00  0.00    +0.077 C 
ATOM      7  C   LIG    1       49.521  58.748  39.678  0.00  0.00    +0.044 C 
ATOM      8  C   LIG    1       49.477  58.202  41.105  0.00  0.00    +0.150 C 
ATOM     16  N   LIG    1       49.304  59.387  41.937  0.00  0.00    -0.209 NA
ATOM     17  C   LIG    1       49.020  60.581  41.151  0.00  0.00    +0.105 C 
BRANCH   8   9
ATOM      9  C   LIG    1       50.694  57.373  41.471  0.00  0.00    +0.242 C 
ATOM     10  O   LIG    1       51.819  57.846  41.313  0.00  0.00    -0.273 OA
ATOM     11  N   LIG    1       50.466  56.162  41.999  0.00  0.00    -0.268 N 
ATOM     12  C   LIG    1       49.095  55.658  42.149  0.00  0.00    +0.106 C 
ATOM     13  C   LIG    1       49.067  54.266  42.789  0.00  0.00    +0.081 C 
ATOM     14  S   LIG    1       50.682  53.675  42.597  0.00  0.00    -0.117 S 
ATOM     15  C   LIG    1       51.510  55.236  42.458  0.00  0.00    +0.152 C 
ENDBRANCH   8   9
ENDBRANCH   5   6
TORSDOF 4
ENDMDL
MODEL 4
REMARK VINA RESULT:    -7.675      4.590      8.805
REMARK INTER + INTRA:         -10.167
REMARK INTER:                  -9.531
REMARK INTRA:                  -0.636
REMARK UNBOUND:                -0.698
REMARK  Name = ligand_1
REMARK                            x       y       z     vdW  Elec       q    Type
REMARK                         _______ _______ _______ _____ _____    ______ ____
ROOT
ATOM      2  N   LIG    1       50.756  63.038  36.617  0.00  0.00    -0.305 N 
ATOM      3  C   LIG    1       49.449  62.616  36.124  0.00  0.00    +0.108 C 
ATOM      4  C   LIG    1       48.961  61.426  36.958  0.00  0.00    +0.094 C 
ATOM      5  N   LIG    1       49.015  61.757  38.390  0.00  0.00    -0.270 NA
ATOM     18  C   LIG    1       50.317  62.195  38.877  0.00  0.00    +0.094 C 
ATOM     19  C   LIG    1       50.796  63.383  38.046  0.00  0.00    +0.108 C 
ENDROOT
BRANCH   2   1
ATOM      1  C   LIG    1       51.532  63.865  35.732  0.00  0.00    +0.051 A 
ATOM     20  C   LIG    1       52.946  63.825  35.699  0.00  0.00    +0.031 A 
ATOM     21  C   LIG    1       53.680  63.069  36.609  0.00  0.00    +0.003 A 
ATOM     22  C   LIG    1       55.071  63.052  36.557  0.00  0.00    +0.000 A 
ATOM     23  C   LIG    1       55.761  63.793  35.596  0.00  0.00    +0.002 A 
ATOM     24  C   LIG    1       55.043  64.552  34.678  0.00  0.00    +0.019 A 
ATOM     25  C   LIG    1       53.653  64.565  34.732  0.00  0.00    +0.082 A 
ATOM     26  N   LIG    1       52.994  65.321  33.837  0.00  0.00    -0.241 NA
ATOM     27  C   LIG    1       51.647  65.394  33.837  0.00  0.00    +0.154 A 
ATOM     32  C   LIG    1       50.892  64.662  34.767  0.00  0.00    +0.038 A 
BRANCH  27  28
ATOM     28  C   LIG    1       51.068  66.264  32.755  0.00  0.00    +0.435 C 
ATOM     29  F   LIG    1       49.769  66.051  32.691  0.00  0.00    -0.164 F 
ATOM     30  F   LIG    1       51.627  66.112  31.569  0.00  0.00    -0.164 F 
ATOM     31  F   LIG    1       51.245  67.509  33.142  0.00  0.00    -0.164 F 
ENDBRANCH  27  28
ENDBRANCH   2   1
BRANCH   5   6
ATOM      6  C   LIG    1       48.572  60.590  39.202  0.00  0.00    +0.077 C 
ATOM      7  C   LIG    1       49.574  59.425  39.164  0.00  0.00    +0.044 C 
ATOM      8  C   LIG    1       49.338  58.669  40.471  0.00  0.00    +0.150 C 
ATOM     16  N   LIG    1       48.811  59.681  41.380  0.00  0.00    -0.209 NA
ATOM     17  C   LIG    1       48.497  60.930  40.699  0.00  0.00    +0.105 C 
BRANCH   8   9
ATOM      9  C   LIG    1       50.578  57.967  40.993  0.00  0.00    +0.242 C 
ATOM     10  O   LIG    1       51.673  58.520  40.899  0.00  0.00    -0.273 OA
ATOM     11  N   LIG    1       50.397  56.776  41.581  0.00  0.00    -0.268 N 
ATOM     12  C   LIG    1       49.060  56.171  41.648  0.00  0.00    +0.106 C 
ATOM     13  C   LIG    1       49.082  54.822  42.376  0.00  0.00    +0.081 C 
ATOM     14  S   LIG    1       50.748  54.355  42.361  0.00  0.00    -0.117 S 
ATOM     15  C   LIG    1       51.464  55.968  42.188  0.00  0.00    +0.152 C 
ENDBRANCH   8   9
ENDBRANCH   5   6
TORSDOF 4
ENDMDL
MODEL 5
REMARK VINA RESULT:    -7.658      6.613      9.347
REMARK INTER + INTRA:         -10.146
REMARK INTER:                  -9.192
REMARK INTRA:                  -0.954
REMARK UNBOUND:                -0.698
REMARK  Name = ligand_1
REMARK                            x       y       z     vdW  Elec       q    Type
REMARK                         _______ _______ _______ _____ _____    ______ ____
ROOT
ATOM      2  N   LIG    1       52.388  63.252  35.593  0.00  0.00    -0.305 N 
ATOM      3  C   LIG    1       52.460  64.136  34.433  0.00  0.00    +0.108 C 
ATOM      4  C   LIG    1       51.154  64.025  33.639  0.00  0.00    +0.094 C 
ATOM      5  N   LIG    1       50.003  64.248  34.528  0.00  0.00    -0.270 NA
ATOM     18  C   LIG    1       49.942  63.377  35.694  0.00  0.00    +0.094 C 
ATOM     19  C   LIG    1       51.244  63.494  36.484  0.00  0.00    +0.108 C 
ENDROOT
BRANCH   2   1
ATOM      1  C   LIG    1       53.640  62.930  36.224  0.00  0.00    +0.051 A 
ATOM     20  C   LIG    1       54.100  61.600  36.365  0.00  0.00    +0.031 A 
ATOM     21  C   LIG    1       53.310  60.509  36.010  0.00  0.00    +0.003 A 
ATOM     22  C   LIG    1       53.785  59.210  36.163  0.00  0.00    +0.000 A 
ATOM     23  C   LIG    1       55.059  58.970  36.680  0.00  0.00    +0.002 A 
ATOM     24  C   LIG    1       55.863  60.048  37.037  0.00  0.00    +0.019 A 
ATOM     25  C   LIG    1       55.385  61.345  36.880  0.00  0.00    +0.082 A 
ATOM     26  N   LIG    1       56.184  62.360  37.251  0.00  0.00    -0.241 NA
ATOM     27  C   LIG    1       55.783  63.643  37.140  0.00  0.00    +0.154 A 
ATOM     32  C   LIG    1       54.519  63.955  36.615  0.00  0.00    +0.038 A 
BRANCH  27  28
ATOM     28  C   LIG    1       56.806  64.657  37.574  0.00  0.00    +0.435 C 
ATOM     29  F   LIG    1       56.671  65.739  36.834  0.00  0.00    -0.164 F 
ATOM     30  F   LIG    1       58.053  64.226  37.550  0.00  0.00    -0.164 F 
ATOM     31  F   LIG    1       56.504  64.986  38.813  0.00  0.00    -0.164 F 
ENDBRANCH  27  28
ENDBRANCH   2   1
BRANCH   5   6
ATOM      6  C   LIG    1       48.732  64.108  33.763  0.00  0.00    +0.077 C 
ATOM      7  C   LIG    1       48.953  63.596  32.332  0.00  0.00    +0.044 C 
ATOM      8  C   LIG    1       47.641  62.906  31.960  0.00  0.00    +0.150 C 
ATOM     16  N   LIG    1       47.083  62.485  33.241  0.00  0.00    -0.209 NA
ATOM     17  C   LIG    1       47.814  63.037  34.373  0.00  0.00    +0.105 C 
BRANCH   8   9
ATOM      9  C   LIG    1       47.816  61.771  30.968  0.00  0.00    +0.242 C 
ATOM     10  O   LIG    1       48.725  60.958  31.132  0.00  0.00    -0.273 OA
ATOM     11  N   LIG    1       46.922  61.693  29.973  0.00  0.00    -0.268 N 
ATOM     12  C   LIG    1       45.868  62.707  29.834  0.00  0.00    +0.106 C 
ATOM     13  C   LIG    1       44.949  62.413  28.643  0.00  0.00    +0.081 C 
ATOM     14  S   LIG    1       45.849  61.296  27.675  0.00  0.00    -0.117 S 
ATOM     15  C   LIG    1       46.897  60.642  28.947  0.00  0.00    +0.152 C 
ENDBRANCH   8   9
ENDBRANCH   5   6
TORSDOF 4
ENDMDL
MODEL 6
REMARK VINA RESULT:    -7.533      5.280      7.027
REMARK INTER + INTRA:          -9.993
REMARK INTER:                  -9.496
REMARK INTRA:                  -0.497
REMARK UNBOUND:                -0.698
REMARK  Name = ligand_1
REMARK                            x       y       z     vdW  Elec       q    Type
REMARK                         _______ _______ _______ _____ _____    ______ ____
ROOT
ATOM      2  N   LIG    1       53.610  57.987  38.745  0.00  0.00    -0.305 N 
ATOM      3  C   LIG    1       54.624  58.946  38.317  0.00  0.00    +0.108 C 
ATOM      4  C   LIG    1       54.145  59.645  37.041  0.00  0.00    +0.094 C 
ATOM      5  N   LIG    1       52.800  60.204  37.247  0.00  0.00    -0.270 NA
ATOM     18  C   LIG    1       51.792  59.249  37.689  0.00  0.00    +0.094 C 
ATOM     19  C   LIG    1       52.273  58.558  38.964  0.00  0.00    +0.108 C 
ENDROOT
BRANCH   2   1
ATOM      1  C   LIG    1       54.041  56.979  39.676  0.00  0.00    +0.051 A 
ATOM     20  C   LIG    1       54.847  55.883  39.291  0.00  0.00    +0.031 A 
ATOM     21  C   LIG    1       55.173  55.644  37.958  0.00  0.00    +0.003 A 
ATOM     22  C   LIG    1       55.964  54.555  37.605  0.00  0.00    +0.000 A 
ATOM     23  C   LIG    1       56.445  53.675  38.576  0.00  0.00    +0.002 A 
ATOM     24  C   LIG    1       56.131  53.899  39.913  0.00  0.00    +0.019 A 
ATOM     25  C   LIG    1       55.342  54.991  40.261  0.00  0.00    +0.082 A 
ATOM     26  N   LIG    1       55.047  55.166  41.561  0.00  0.00    -0.241 NA
ATOM     27  C   LIG    1       54.276  56.194  41.972  0.00  0.00    +0.154 A 
ATOM     32  C   LIG    1       53.773  57.124  41.049  0.00  0.00    +0.038 A 
BRANCH  27  28
ATOM     28  C   LIG    1       54.065  56.261  43.460  0.00  0.00    +0.435 C 
ATOM     29  F   LIG    1       54.238  55.057  43.967  0.00  0.00    -0.164 F 
ATOM     30  F   LIG    1       52.900  56.760  43.828  0.00  0.00    -0.164 F 
ATOM     31  F   LIG    1       55.018  57.032  43.938  0.00  0.00    -0.164 F 
ENDBRANCH  27  28
ENDBRANCH   2   1
BRANCH   5   6
ATOM      6  C   LIG    1       52.320  60.854  35.996  0.00  0.00    +0.077 C 
ATOM      7  C   LIG    1       51.642  62.209  36.252  0.00  0.00    +0.044 C 
ATOM      8  C   LIG    1       51.825  62.987  34.949  0.00  0.00    +0.150 C 
ATOM     16  N   LIG    1       53.031  62.418  34.359  0.00  0.00    -0.209 NA
ATOM     17  C   LIG    1       53.484  61.224  35.061  0.00  0.00    +0.105 C 
BRANCH   8   9
ATOM      9  C   LIG    1       51.893  64.489  35.149  0.00  0.00    +0.242 C 
ATOM     10  O   LIG    1       52.228  64.941  36.244  0.00  0.00    -0.273 OA
ATOM     11  N   LIG    1       51.624  65.255  34.083  0.00  0.00    -0.268 N 
ATOM     12  C   LIG    1       51.221  64.646  32.808  0.00  0.00    +0.106 C 
ATOM     13  C   LIG    1       50.980  65.702  31.724  0.00  0.00    +0.081 C 
ATOM     14  S   LIG    1       50.795  67.182  32.602  0.00  0.00    -0.117 S 
ATOM     15  C   LIG    1       51.685  66.723  34.066  0.00  0.00    +0.152 C 
ENDBRANCH   8   9
ENDBRANCH   5   6
TORSDOF 4
ENDMDL
MODEL 7
REMARK VINA RESULT:    -7.287      5.702      7.573
REMARK INTER + INTRA:          -9.688
REMARK INTER:                  -9.303
REMARK INTRA:                  -0.386
REMARK UNBOUND:                -0.698
REMARK  Name = ligand_1
REMARK                            x       y       z     vdW  Elec       q    Type
REMARK                         _______ _______ _______ _____ _____    ______ ____
ROOT
ATOM      2  N   LIG    1       54.566  58.443  38.050  0.00  0.00    -0.305 N 
ATOM      3  C   LIG    1       53.515  58.275  37.051  0.00  0.00    +0.108 C 
ATOM      4  C   LIG    1       53.099  59.655  36.528  0.00  0.00    +0.094 C 
ATOM      5  N   LIG    1       54.284  60.400  36.075  0.00  0.00    -0.270 NA
ATOM     18  C   LIG    1       55.339  60.552  37.068  0.00  0.00    +0.094 C 
ATOM     19  C   LIG    1       55.753  59.175  37.582  0.00  0.00    +0.108 C 
ENDROOT
BRANCH   2   1
ATOM      1  C   LIG    1       54.802  57.320  38.918  0.00  0.00    +0.051 A 
ATOM     20  C   LIG    1       55.537  56.183  38.508  0.00  0.00    +0.031 A 
ATOM     21  C   LIG    1       55.974  56.026  37.195  0.00  0.00    +0.003 A 
ATOM     22  C   LIG    1       56.691  54.895  36.816  0.00  0.00    +0.000 A 
ATOM     23  C   LIG    1       56.984  53.891  37.740  0.00  0.00    +0.002 A 
ATOM     24  C   LIG    1       56.557  54.032  39.057  0.00  0.00    +0.019 A 
ATOM     25  C   LIG    1       55.843  55.166  39.432  0.00  0.00    +0.082 A 
ATOM     26  N   LIG    1       55.434  55.259  40.708  0.00  0.00    -0.241 NA
ATOM     27  C   LIG    1       54.725  56.323  41.141  0.00  0.00    +0.154 A 
ATOM     32  C   LIG    1       54.409  57.375  40.267  0.00  0.00    +0.038 A 
BRANCH  27  28
ATOM     28  C   LIG    1       54.369  56.284  42.602  0.00  0.00    +0.435 C 
ATOM     29  F   LIG    1       53.089  56.569  42.734  0.00  0.00    -0.164 F 
ATOM     30  F   LIG    1       55.105  57.067  43.368  0.00  0.00    -0.164 F 
ATOM     31  F   LIG    1       54.539  55.040  42.995  0.00  0.00    -0.164 F 
ENDBRANCH  27  28
ENDBRANCH   2   1
BRANCH   5   6
ATOM      6  C   LIG    1       53.883  61.753  35.597  0.00  0.00    +0.077 C 
ATOM      7  C   LIG    1       52.591  61.732  34.766  0.00  0.00    +0.044 C 
ATOM      8  C   LIG    1       51.998  63.131  34.936  0.00  0.00    +0.150 C 
ATOM     16  N   LIG    1       52.509  63.582  36.226  0.00  0.00    -0.209 NA
ATOM     17  C   LIG    1       53.526  62.689  36.764  0.00  0.00    +0.105 C 
BRANCH   8   9
ATOM      9  C   LIG    1       50.485  63.161  34.834  0.00  0.00    +0.242 C 
ATOM     10  O   LIG    1       49.812  62.486  35.612  0.00  0.00    -0.273 OA
ATOM     11  N   LIG    1       49.956  63.975  33.911  0.00  0.00    -0.268 N 
ATOM     12  C   LIG    1       50.823  64.746  33.009  0.00  0.00    +0.106 C 
ATOM     13  C   LIG    1       50.010  65.621  32.049  0.00  0.00    +0.081 C 
ATOM     14  S   LIG    1       48.417  64.946  32.100  0.00  0.00    -0.117 S 
ATOM     15  C   LIG    1       48.517  64.177  33.694  0.00  0.00    +0.152 C 
ENDBRANCH   8   9
ENDBRANCH   5   6
TORSDOF 4
ENDMDL
MODEL 8
REMARK VINA RESULT:    -7.273      4.607      7.928
REMARK INTER + INTRA:          -9.671
REMARK INTER:                  -8.735
REMARK INTRA:                  -0.936
REMARK UNBOUND:                -0.698
REMARK  Name = ligand_1
REMARK                            x       y       z     vdW  Elec       q    Type
REMARK                         _______ _______ _______ _____ _____    ______ ____
ROOT
ATOM      2  N   LIG    1       49.155  61.912  36.322  0.00  0.00    -0.305 N 
ATOM      3  C   LIG    1       49.463  60.568  35.843  0.00  0.00    +0.108 C 
ATOM      4  C   LIG    1       49.872  59.695  37.034  0.00  0.00    +0.094 C 
ATOM      5  N   LIG    1       48.848  59.767  38.087  0.00  0.00    -0.270 NA
ATOM     18  C   LIG    1       48.530  61.111  38.552  0.00  0.00    +0.094 C 
ATOM     19  C   LIG    1       48.118  61.976  37.363  0.00  0.00    +0.108 C 
ENDROOT
BRANCH   2   1
ATOM      1  C   LIG    1       49.134  62.952  35.327  0.00  0.00    +0.051 A 
ATOM     20  C   LIG    1       50.227  63.824  35.116  0.00  0.00    +0.031 A 
ATOM     21  C   LIG    1       51.347  63.811  35.944  0.00  0.00    +0.003 A 
ATOM     22  C   LIG    1       52.407  64.684  35.717  0.00  0.00    +0.000 A 
ATOM     23  C   LIG    1       52.370  65.595  34.661  0.00  0.00    +0.002 A 
ATOM     24  C   LIG    1       51.260  65.621  33.823  0.00  0.00    +0.019 A 
ATOM     25  C   LIG    1       50.204  64.745  34.051  0.00  0.00    +0.082 A 
ATOM     26  N   LIG    1       49.142  64.810  33.230  0.00  0.00    -0.241 NA
ATOM     27  C   LIG    1       48.075  64.002  33.398  0.00  0.00    +0.154 A 
ATOM     32  C   LIG    1       48.054  63.052  34.432  0.00  0.00    +0.038 A 
BRANCH  27  28
ATOM     28  C   LIG    1       46.984  64.185  32.378  0.00  0.00    +0.435 C 
ATOM     29  F   LIG    1       46.556  62.997  31.999  0.00  0.00    -0.164 F 
ATOM     30  F   LIG    1       47.325  64.916  31.334  0.00  0.00    -0.164 F 
ATOM     31  F   LIG    1       45.991  64.784  32.999  0.00  0.00    -0.164 F 
ENDBRANCH  27  28
ENDBRANCH   2   1
BRANCH   5   6
ATOM      6  C   LIG    1       49.261  58.945  39.259  0.00  0.00    +0.077 C 
ATOM      7  C   LIG    1       50.457  58.031  38.951  0.00  0.00    +0.044 C 
ATOM      8  C   LIG    1       51.132  57.806  40.304  0.00  0.00    +0.150 C 
ATOM     16  N   LIG    1       50.781  58.991  41.080  0.00  0.00    -0.209 NA
ATOM     17  C   LIG    1       49.783  59.816  40.413  0.00  0.00    +0.105 C 
BRANCH   8   9
ATOM      9  C   LIG    1       52.626  57.565  40.200  0.00  0.00    +0.242 C 
ATOM     10  O   LIG    1       53.291  58.216  39.395  0.00  0.00    -0.273 OA
ATOM     11  N   LIG    1       53.155  56.668  41.044  0.00  0.00    -0.268 N 
ATOM     12  C   LIG    1       52.297  55.920  41.973  0.00  0.00    +0.106 C 
ATOM     13  C   LIG    1       53.110  54.965  42.854  0.00  0.00    +0.081 C 
ATOM     14  S   LIG    1       54.624  54.808  42.030  0.00  0.00    -0.117 S 
ATOM     15  C   LIG    1       54.583  56.334  41.128  0.00  0.00    +0.152 C 
ENDBRANCH   8   9
ENDBRANCH   5   6
TORSDOF 4
ENDMDL
MODEL 9
REMARK VINA RESULT:    -7.035      5.625      7.230
REMARK INTER + INTRA:          -9.379
REMARK INTER:                  -8.548
REMARK INTRA:                  -0.831
REMARK UNBOUND:                -0.698
REMARK  Name = ligand_1
REMARK                            x       y       z     vdW  Elec       q    Type
REMARK                         _______ _______ _______ _____ _____    ______ ____
ROOT
ATOM      2  N   LIG    1       52.456  58.087  38.698  0.00  0.00    -0.305 N 
ATOM      3  C   LIG    1       51.950  57.193  37.660  0.00  0.00    +0.108 C 
ATOM      4  C   LIG    1       53.128  56.443  37.030  0.00  0.00    +0.094 C 
ATOM      5  N   LIG    1       53.933  55.796  38.078  0.00  0.00    -0.270 NA
ATOM     18  C   LIG    1       54.423  56.687  39.122  0.00  0.00    +0.094 C 
ATOM     19  C   LIG    1       53.245  57.429  39.750  0.00  0.00    +0.108 C 
ENDROOT
BRANCH   2   1
ATOM      1  C   LIG    1       51.568  59.137  39.120  0.00  0.00    +0.051 A 
ATOM     20  C   LIG    1       51.447  60.358  38.417  0.00  0.00    +0.031 A 
ATOM     21  C   LIG    1       52.272  60.670  37.340  0.00  0.00    +0.003 A 
ATOM     22  C   LIG    1       52.135  61.881  36.668  0.00  0.00    +0.000 A 
ATOM     23  C   LIG    1       51.173  62.813  37.062  0.00  0.00    +0.002 A 
ATOM     24  C   LIG    1       50.338  62.517  38.135  0.00  0.00    +0.019 A 
ATOM     25  C   LIG    1       50.477  61.304  38.802  0.00  0.00    +0.082 A 
ATOM     26  N   LIG    1       49.663  61.060  39.843  0.00  0.00    -0.241 NA
ATOM     27  C   LIG    1       49.749  59.912  40.546  0.00  0.00    +0.154 A 
ATOM     32  C   LIG    1       50.685  58.926  40.193  0.00  0.00    +0.038 A 
BRANCH  27  28
ATOM     28  C   LIG    1       48.748  59.786  41.662  0.00  0.00    +0.435 C 
ATOM     29  F   LIG    1       49.380  59.907  42.812  0.00  0.00    -0.164 F 
ATOM     30  F   LIG    1       48.032  58.678  41.636  0.00  0.00    -0.164 F 
ATOM     31  F   LIG    1       47.932  60.812  41.549  0.00  0.00    -0.164 F 
ENDBRANCH  27  28
ENDBRANCH   2   1
BRANCH   5   6
ATOM      6  C   LIG    1       55.097  55.094  37.468  0.00  0.00    +0.077 C 
ATOM      7  C   LIG    1       55.254  55.395  35.969  0.00  0.00    +0.044 C 
ATOM      8  C   LIG    1       56.742  55.189  35.687  0.00  0.00    +0.150 C 
ATOM     16  N   LIG    1       57.389  55.448  36.969  0.00  0.00    -0.209 NA
ATOM     17  C   LIG    1       56.431  55.580  38.058  0.00  0.00    +0.105 C 
BRANCH   8   9
ATOM      9  C   LIG    1       57.266  56.051  34.554  0.00  0.00    +0.242 C 
ATOM     10  O   LIG    1       57.656  57.194  34.793  0.00  0.00    -0.273 OA
ATOM     11  N   LIG    1       57.317  55.489  33.339  0.00  0.00    -0.268 N 
ATOM     12  C   LIG    1       56.825  54.121  33.126  0.00  0.00    +0.106 C 
ATOM     13  C   LIG    1       56.995  53.675  31.670  0.00  0.00    +0.081 C 
ATOM     14  S   LIG    1       57.229  55.150  30.795  0.00  0.00    -0.117 S 
ATOM     15  C   LIG    1       57.836  56.145  32.131  0.00  0.00    +0.152 C 
ENDBRANCH   8   9
ENDBRANCH   5   6
TORSDOF 4
ENDMDL
