MODEL 1
REMARK VINA RESULT:    -8.017      0.000      0.000
REMARK INTER + INTRA:         -10.727
REMARK INTER:                  -9.891
REMARK INTRA:                  -0.835
REMARK UNBOUND:                -0.835
REMARK  Name = ligand_1
REMARK                            x       y       z     vdW  Elec       q    Type
REMARK                         _______ _______ _______ _____ _____    ______ ____
ROOT
ATOM      2  N   LIG    1       51.170  62.534  37.507  0.00  0.00    -0.305 N 
ATOM      3  C   LIG    1       50.745  63.274  38.692  0.00  0.00    +0.108 C 
ATOM      4  C   LIG    1       49.570  62.538  39.345  0.00  0.00    +0.094 C 
ATOM      5  N   LIG    1       49.923  61.129  39.577  0.00  0.00    -0.270 NA
ATOM     18  C   LIG    1       50.363  60.397  38.396  0.00  0.00    +0.094 C 
ATOM     19  C   LIG    1       51.537  61.131  37.752  0.00  0.00    +0.108 C 
ENDROOT
BRANCH   2   1
ATOM      1  C   LIG    1       51.981  63.257  36.564  0.00  0.00    +0.051 A 
ATOM     20  C   LIG    1       51.431  63.934  35.451  0.00  0.00    +0.031 A 
ATOM     21  C   LIG    1       50.079  63.840  35.129  0.00  0.00    +0.003 A 
ATOM     22  C   LIG    1       49.565  64.513  34.025  0.00  0.00    +0.000 A 
ATOM     23  C   LIG    1       50.391  65.292  33.213  0.00  0.00    +0.002 A 
ATOM     24  C   LIG    1       51.743  65.399  33.521  0.00  0.00    +0.019 A 
ATOM     25  C   LIG    1       52.253  64.727  34.627  0.00  0.00    +0.082 A 
ATOM     26  N   LIG    1       53.567  64.842  34.884  0.00  0.00    -0.241 NA
ATOM     27  C   LIG    1       54.134  64.208  35.931  0.00  0.00    +0.154 A 
ATOM     32  C   LIG    1       53.358  63.421  36.796  0.00  0.00    +0.038 A 
BRANCH  27  28
ATOM     28  C   LIG    1       55.608  64.463  36.092  0.00  0.00    +0.435 C 
ATOM     29  F   LIG    1       56.265  63.367  35.771  0.00  0.00    -0.164 F 
ATOM     30  F   LIG    1       55.965  64.890  37.289  0.00  0.00    -0.164 F 
ATOM     31  F   LIG    1       55.925  65.387  35.210  0.00  0.00    -0.164 F 
ENDBRANCH  27  28
ENDBRANCH   2   1
BRANCH   5   6
ATOM      6  C   LIG    1       48.769  60.406  40.181  0.00  0.00    +0.077 C 
ATOM      7  C   LIG    1       48.513  59.041  39.526  0.00  0.00    +0.044 C 
ATOM      8  C   LIG    1       47.824  58.213  40.611  0.00  0.00    +0.150 C 
ATOM     16  N   LIG    1       48.295  58.799  41.861  0.00  0.00    -0.209 NA
ATOM     17  C   LIG    1       49.031  60.038  41.651  0.00  0.00    +0.105 C 
BRANCH   8   9
ATOM      9  C   LIG    1       48.094  56.724  40.495  0.00  0.00    +0.242 C 
ATOM     10  O   LIG    1       49.154  56.266  40.921  0.00  0.00    -0.273 OA
ATOM     11  N   LIG    1       47.121  55.972  39.965  0.00  0.00    -0.268 N 
ATOM     12  C   LIG    1       45.884  56.590  39.468  0.00  0.00    +0.106 C 
ATOM     13  C   LIG    1       44.905  55.545  38.922  0.00  0.00    +0.081 C 
ATOM     14  S   LIG    1       45.880  54.140  38.662  0.00  0.00    -0.117 S 
ATOM     15  C   LIG    1       47.175  54.511  39.815  0.00  0.00    +0.152 C 
ENDBRANCH   8   9
ENDBRANCH   5   6
TORSDOF 4
ENDMDL
MODEL 2
REMARK VINA RESULT:    -7.540      2.939      3.919
REMARK INTER + INTRA:         -10.139
REMARK INTER:                  -9.534
REMARK INTRA:                  -0.604
REMARK UNBOUND:                -0.835
REMARK  Name = ligand_1
REMARK                            x       y       z     vdW  Elec       q    Type
REMARK                         _______ _______ _______ _____ _____    ______ ____
ROOT
ATOM      2  N   LIG    1       50.725  63.032  36.575  0.00  0.00    -0.305 N 
ATOM      3  C   LIG    1       49.393  62.652  36.117  0.00  0.00    +0.108 C 
ATOM      4  C   LIG    1       48.901  61.460  36.946  0.00  0.00    +0.094 C 
ATOM      5  N   LIG    1       49.009  61.764  38.381  0.00  0.00    -0.270 NA
ATOM     18  C   LIG    1       50.336  62.160  38.833  0.00  0.00    +0.094 C 
ATOM     19  C   LIG    1       50.819  63.351  38.008  0.00  0.00    +0.108 C 
ENDROOT
BRANCH   2   1
ATOM      1  C   LIG    1       51.494  63.856  35.680  0.00  0.00    +0.051 A 
ATOM     20  C   LIG    1       52.906  63.806  35.626  0.00  0.00    +0.031 A 
ATOM     21  C   LIG    1       53.649  63.044  36.524  0.00  0.00    +0.003 A 
ATOM     22  C   LIG    1       55.039  63.016  36.451  0.00  0.00    +0.000 A 
ATOM     23  C   LIG    1       55.719  63.755  35.481  0.00  0.00    +0.002 A 
ATOM     24  C   LIG    1       54.993  64.520  34.575  0.00  0.00    +0.019 A 
ATOM     25  C   LIG    1       53.604  64.542  34.649  0.00  0.00    +0.082 A 
ATOM     26  N   LIG    1       52.938  65.305  33.766  0.00  0.00    -0.241 NA
ATOM     27  C   LIG    1       51.591  65.387  33.786  0.00  0.00    +0.154 A 
ATOM     32  C   LIG    1       50.845  64.659  34.726  0.00  0.00    +0.038 A 
BRANCH  27  28
ATOM     28  C   LIG    1       51.002  66.263  32.714  0.00  0.00    +0.435 C 
ATOM     29  F   LIG    1       51.653  66.050  31.588  0.00  0.00    -0.164 F 
ATOM     30  F   LIG    1       50.979  67.550  33.006  0.00  0.00    -0.164 F 
ATOM     31  F   LIG    1       49.763  65.854  32.538  0.00  0.00    -0.164 F 
ENDBRANCH  27  28
ENDBRANCH   2   1
BRANCH   5   6
ATOM      6  C   LIG    1       48.562  60.594  39.186  0.00  0.00    +0.077 C 
ATOM      7  C   LIG    1       49.576  59.439  39.170  0.00  0.00    +0.044 C 
ATOM      8  C   LIG    1       49.323  58.683  40.474  0.00  0.00    +0.150 C 
ATOM     16  N   LIG    1       48.768  59.691  41.371  0.00  0.00    -0.209 NA
ATOM     17  C   LIG    1       48.455  60.936  40.681  0.00  0.00    +0.105 C 
BRANCH   8   9
ATOM      9  C   LIG    1       50.560  57.994  41.021  0.00  0.00    +0.242 C 
ATOM     10  O   LIG    1       51.653  58.551  40.931  0.00  0.00    -0.273 OA
ATOM     11  N   LIG    1       50.377  56.812  41.626  0.00  0.00    -0.268 N 
ATOM     12  C   LIG    1       49.042  56.203  41.688  0.00  0.00    +0.106 C 
ATOM     13  C   LIG    1       49.061  54.866  42.437  0.00  0.00    +0.081 C 
ATOM     14  S   LIG    1       50.729  54.406  42.449  0.00  0.00    -0.117 S 
ATOM     15  C   LIG    1       51.440  56.019  42.258  0.00  0.00    +0.152 C 
ENDBRANCH   8   9
ENDBRANCH   5   6
TORSDOF 4
ENDMDL
MODEL 3
REMARK VINA RESULT:    -7.272      5.859      7.652
REMARK INTER + INTRA:          -9.808
REMARK INTER:                  -8.878
REMARK INTRA:                  -0.930
REMARK UNBOUND:                -0.835
REMARK  Name = ligand_1
REMARK                            x       y       z     vdW  Elec       q    Type
REMARK                         _______ _______ _______ _____ _____    ______ ____
ROOT
ATOM      2  N   LIG    1       53.342  63.812  34.930  0.00  0.00    -0.305 N 
ATOM      3  C   LIG    1       53.857  64.127  33.601  0.00  0.00    +0.108 C 
ATOM      4  C   LIG    1       52.697  64.120  32.600  0.00  0.00    +0.094 C 
ATOM      5  N   LIG    1       51.615  64.996  33.077  0.00  0.00    -0.270 NA
ATOM     18  C   LIG    1       51.113  64.691  34.411  0.00  0.00    +0.094 C 
ATOM     19  C   LIG    1       52.272  64.703  35.405  0.00  0.00    +0.108 C 
ENDROOT
BRANCH   2   1
ATOM      1  C   LIG    1       54.312  63.394  35.906  0.00  0.00    +0.051 A 
ATOM     20  C   LIG    1       54.506  62.036  36.251  0.00  0.00    +0.031 A 
ATOM     21  C   LIG    1       53.682  61.028  35.757  0.00  0.00    +0.003 A 
ATOM     22  C   LIG    1       53.891  59.700  36.117  0.00  0.00    +0.000 A 
ATOM     23  C   LIG    1       54.927  59.349  36.984  0.00  0.00    +0.002 A 
ATOM     24  C   LIG    1       55.761  60.342  37.486  0.00  0.00    +0.019 A 
ATOM     25  C   LIG    1       55.550  61.668  37.121  0.00  0.00    +0.082 A 
ATOM     26  N   LIG    1       56.367  62.601  37.638  0.00  0.00    -0.241 NA
ATOM     27  C   LIG    1       56.215  63.909  37.341  0.00  0.00    +0.154 A 
ATOM     32  C   LIG    1       55.202  64.329  36.463  0.00  0.00    +0.038 A 
BRANCH  27  28
ATOM     28  C   LIG    1       57.228  64.818  37.981  0.00  0.00    +0.435 C 
ATOM     29  F   LIG    1       57.148  66.006  37.415  0.00  0.00    -0.164 F 
ATOM     30  F   LIG    1       58.468  64.367  37.951  0.00  0.00    -0.164 F 
ATOM     31  F   LIG    1       56.865  64.954  39.238  0.00  0.00    -0.164 F 
ENDBRANCH  27  28
ENDBRANCH   2   1
BRANCH   5   6
ATOM      6  C   LIG    1       50.473  64.964  32.121  0.00  0.00    +0.077 C 
ATOM      7  C   LIG    1       49.560  63.745  32.325  0.00  0.00    +0.044 C 
ATOM      8  C   LIG    1       48.197  64.190  31.796  0.00  0.00    +0.150 C 
ATOM     16  N   LIG    1       48.205  65.639  31.959  0.00  0.00    -0.209 NA
ATOM     17  C   LIG    1       49.517  66.149  32.333  0.00  0.00    +0.105 C 
BRANCH   8   9
ATOM      9  C   LIG    1       47.031  63.504  32.484  0.00  0.00    +0.242 C 
ATOM     10  O   LIG    1       46.763  63.790  33.651  0.00  0.00    -0.273 OA
ATOM     11  N   LIG    1       46.316  62.641  31.749  0.00  0.00    -0.268 N 
ATOM     12  C   LIG    1       46.701  62.342  30.364  0.00  0.00    +0.106 C 
ATOM     13  C   LIG    1       45.738  61.346  29.708  0.00  0.00    +0.081 C 
ATOM     14  S   LIG    1       44.905  60.618  31.039  0.00  0.00    -0.117 S 
ATOM     15  C   LIG    1       45.127  61.919  32.222  0.00  0.00    +0.152 C 
ENDBRANCH   8   9
ENDBRANCH   5   6
TORSDOF 4
ENDMDL
MODEL 4
REMARK VINA RESULT:    -6.280      5.651      7.672
REMARK INTER + INTRA:          -8.584
REMARK INTER:                  -7.616
REMARK INTRA:                  -0.968
REMARK UNBOUND:                -0.835
REMARK  Name = ligand_1
REMARK                            x       y       z     vdW  Elec       q    Type
REMARK                         _______ _______ _______ _____ _____    ______ ____
ROOT
ATOM      2  N   LIG    1       52.555  61.883  34.493  0.00  0.00    -0.305 N 
ATOM      3  C   LIG    1       52.991  62.180  33.132  0.00  0.00    +0.108 C 
ATOM      4  C   LIG    1       51.932  61.675  32.147  0.00  0.00    +0.094 C 
ATOM      5  N   LIG    1       50.610  62.204  32.512  0.00  0.00    -0.270 NA
ATOM     18  C   LIG    1       50.183  61.921  33.876  0.00  0.00    +0.094 C 
ATOM     19  C   LIG    1       51.239  62.430  34.855  0.00  0.00    +0.108 C 
ENDROOT
BRANCH   2   1
ATOM      1  C   LIG    1       53.573  61.925  35.510  0.00  0.00    +0.051 A 
ATOM     20  C   LIG    1       53.942  60.787  36.264  0.00  0.00    +0.031 A 
ATOM     21  C   LIG    1       53.256  59.580  36.153  0.00  0.00    +0.003 A 
ATOM     22  C   LIG    1       53.637  58.476  36.910  0.00  0.00    +0.000 A 
ATOM     23  C   LIG    1       54.710  58.554  37.800  0.00  0.00    +0.002 A 
ATOM     24  C   LIG    1       55.408  59.752  37.922  0.00  0.00    +0.019 A 
ATOM     25  C   LIG    1       55.025  60.852  37.160  0.00  0.00    +0.082 A 
ATOM     26  N   LIG    1       55.713  61.996  37.316  0.00  0.00    -0.241 NA
ATOM     27  C   LIG    1       55.391  63.107  36.623  0.00  0.00    +0.154 A 
ATOM     32  C   LIG    1       54.332  63.093  35.701  0.00  0.00    +0.038 A 
BRANCH  27  28
ATOM     28  C   LIG    1       56.276  64.293  36.895  0.00  0.00    +0.435 C 
ATOM     29  F   LIG    1       56.021  64.743  38.107  0.00  0.00    -0.164 F 
ATOM     30  F   LIG    1       56.184  65.264  36.005  0.00  0.00    -0.164 F 
ATOM     31  F   LIG    1       57.513  63.843  36.892  0.00  0.00    -0.164 F 
ENDBRANCH  27  28
ENDBRANCH   2   1
BRANCH   5   6
ATOM      6  C   LIG    1       49.575  61.686  31.574  0.00  0.00    +0.077 C 
ATOM      7  C   LIG    1       50.094  60.543  30.688  0.00  0.00    +0.044 C 
ATOM      8  C   LIG    1       48.847  59.738  30.325  0.00  0.00    +0.150 C 
ATOM     16  N   LIG    1       47.926  59.987  31.428  0.00  0.00    -0.209 NA
ATOM     17  C   LIG    1       48.400  61.035  32.321  0.00  0.00    +0.105 C 
BRANCH   8   9
ATOM      9  C   LIG    1       49.129  58.266  30.086  0.00  0.00    +0.242 C 
ATOM     10  O   LIG    1       49.894  57.665  30.840  0.00  0.00    -0.273 OA
ATOM     11  N   LIG    1       48.477  57.681  29.072  0.00  0.00    -0.268 N 
ATOM     12  C   LIG    1       47.585  58.464  28.206  0.00  0.00    +0.106 C 
ATOM     13  C   LIG    1       46.932  57.594  27.126  0.00  0.00    +0.081 C 
ATOM     14  S   LIG    1       47.913  56.169  27.075  0.00  0.00    -0.117 S 
ATOM     15  C   LIG    1       48.580  56.260  28.715  0.00  0.00    +0.152 C 
ENDBRANCH   8   9
ENDBRANCH   5   6
TORSDOF 4
ENDMDL
MODEL 5
REMARK VINA RESULT:    -5.788      6.359      7.384
REMARK INTER + INTRA:          -7.977
REMARK INTER:                  -7.602
REMARK INTRA:                  -0.375
REMARK UNBOUND:                -0.835
REMARK  Name = ligand_1
REMARK                            x       y       z     vdW  Elec       q    Type
REMARK                         _______ _______ _______ _____ _____    ______ ____
ROOT
ATOM      2  N   LIG    1       51.532  61.970  33.056  0.00  0.00    -0.305 N 
ATOM      3  C   LIG    1       51.502  61.854  31.601  0.00  0.00    +0.108 C 
ATOM      4  C   LIG    1       51.194  60.401  31.223  0.00  0.00    +0.094 C 
ATOM      5  N   LIG    1       49.978  59.946  31.915  0.00  0.00    -0.270 NA
ATOM     18  C   LIG    1       50.004  60.078  33.365  0.00  0.00    +0.094 C 
ATOM     19  C   LIG    1       50.306  61.528  33.738  0.00  0.00    +0.108 C 
ENDROOT
BRANCH   2   1
ATOM      1  C   LIG    1       52.179  63.141  33.587  0.00  0.00    +0.051 A 
ATOM     20  C   LIG    1       51.667  64.445  33.393  0.00  0.00    +0.031 A 
ATOM     21  C   LIG    1       50.570  64.688  32.571  0.00  0.00    +0.003 A 
ATOM     22  C   LIG    1       50.089  65.982  32.394  0.00  0.00    +0.000 A 
ATOM     23  C   LIG    1       50.698  67.065  33.031  0.00  0.00    +0.002 A 
ATOM     24  C   LIG    1       51.794  66.840  33.858  0.00  0.00    +0.019 A 
ATOM     25  C   LIG    1       52.269  65.544  34.034  0.00  0.00    +0.082 A 
ATOM     26  N   LIG    1       53.339  65.368  34.828  0.00  0.00    -0.241 NA
ATOM     27  C   LIG    1       53.864  64.143  35.035  0.00  0.00    +0.154 A 
ATOM     32  C   LIG    1       53.291  63.010  34.436  0.00  0.00    +0.038 A 
BRANCH  27  28
ATOM     28  C   LIG    1       55.042  64.117  35.970  0.00  0.00    +0.435 C 
ATOM     29  F   LIG    1       54.598  64.096  37.211  0.00  0.00    -0.164 F 
ATOM     30  F   LIG    1       55.903  65.103  35.798  0.00  0.00    -0.164 F 
ATOM     31  F   LIG    1       55.665  62.979  35.754  0.00  0.00    -0.164 F 
ENDBRANCH  27  28
ENDBRANCH   2   1
BRANCH   5   6
ATOM      6  C   LIG    1       49.698  58.524  31.572  0.00  0.00    +0.077 C 
ATOM      7  C   LIG    1       50.768  57.911  30.655  0.00  0.00    +0.044 C 
ATOM      8  C   LIG    1       50.714  56.411  30.946  0.00  0.00    +0.150 C 
ATOM     16  N   LIG    1       50.211  56.329  32.313  0.00  0.00    -0.209 NA
ATOM     17  C   LIG    1       49.748  57.617  32.813  0.00  0.00    +0.105 C 
BRANCH   8   9
ATOM      9  C   LIG    1       52.044  55.709  30.742  0.00  0.00    +0.242 C 
ATOM     10  O   LIG    1       52.940  55.856  31.573  0.00  0.00    -0.273 OA
ATOM     11  N   LIG    1       52.151  54.916  29.667  0.00  0.00    -0.268 N 
ATOM     12  C   LIG    1       51.041  54.797  28.713  0.00  0.00    +0.106 C 
ATOM     13  C   LIG    1       51.373  53.826  27.573  0.00  0.00    +0.081 C 
ATOM     14  S   LIG    1       53.096  53.676  27.628  0.00  0.00    -0.117 S 
ATOM     15  C   LIG    1       53.337  54.119  29.327  0.00  0.00    +0.152 C 
ENDBRANCH   8   9
ENDBRANCH   5   6
TORSDOF 4
ENDMDL
MODEL 6
REMARK VINA RESULT:    -5.545      7.251      8.632
REMARK INTER + INTRA:          -7.677
REMARK INTER:                  -6.824
REMARK INTRA:                  -0.852
REMARK UNBOUND:                -0.835
REMARK  Name = ligand_1
REMARK                            x       y       z     vdW  Elec       q    Type
REMARK                         _______ _______ _______ _____ _____    ______ ____
ROOT
ATOM      2  N   LIG    1       50.197  60.423  32.291  0.00  0.00    -0.305 N 
ATOM      3  C   LIG    1       50.040  59.972  30.911  0.00  0.00    +0.108 C 
ATOM      4  C   LIG    1       50.568  58.539  30.792  0.00  0.00    +0.094 C 
ATOM      5  N   LIG    1       49.938  57.682  31.808  0.00  0.00    -0.270 NA
ATOM     18  C   LIG    1       50.081  58.143  33.183  0.00  0.00    +0.094 C 
ATOM     19  C   LIG    1       49.549  59.570  33.298  0.00  0.00    +0.108 C 
ENDROOT
BRANCH   2   1
ATOM      1  C   LIG    1       50.125  61.844  32.507  0.00  0.00    +0.051 A 
ATOM     20  C   LIG    1       51.260  62.621  32.834  0.00  0.00    +0.031 A 
ATOM     21  C   LIG    1       52.500  62.040  33.088  0.00  0.00    +0.003 A 
ATOM     22  C   LIG    1       53.600  62.828  33.412  0.00  0.00    +0.000 A 
ATOM     23  C   LIG    1       53.486  64.217  33.495  0.00  0.00    +0.002 A 
ATOM     24  C   LIG    1       52.255  64.815  33.242  0.00  0.00    +0.019 A 
ATOM     25  C   LIG    1       51.159  64.023  32.916  0.00  0.00    +0.082 A 
ATOM     26  N   LIG    1       49.984  64.635  32.694  0.00  0.00    -0.241 NA
ATOM     27  C   LIG    1       48.874  63.932  32.386  0.00  0.00    +0.154 A 
ATOM     32  C   LIG    1       48.923  62.534  32.272  0.00  0.00    +0.038 A 
BRANCH  27  28
ATOM     28  C   LIG    1       47.649  64.771  32.142  0.00  0.00    +0.435 C 
ATOM     29  F   LIG    1       48.022  66.022  31.960  0.00  0.00    -0.164 F 
ATOM     30  F   LIG    1       46.730  64.689  33.085  0.00  0.00    -0.164 F 
ATOM     31  F   LIG    1       47.125  64.346  31.012  0.00  0.00    -0.164 F 
ENDBRANCH  27  28
ENDBRANCH   2   1
BRANCH   5   6
ATOM      6  C   LIG    1       50.475  56.296  31.713  0.00  0.00    +0.077 C 
ATOM      7  C   LIG    1       51.985  56.262  31.429  0.00  0.00    +0.044 C 
ATOM      8  C   LIG    1       52.457  54.928  32.006  0.00  0.00    +0.150 C 
ATOM     16  N   LIG    1       51.496  54.634  33.063  0.00  0.00    -0.209 NA
ATOM     17  C   LIG    1       50.359  55.545  33.049  0.00  0.00    +0.105 C 
BRANCH   8   9
ATOM      9  C   LIG    1       53.898  54.953  32.481  0.00  0.00    +0.242 C 
ATOM     10  O   LIG    1       54.143  55.210  33.659  0.00  0.00    -0.273 OA
ATOM     11  N   LIG    1       54.839  54.641  31.579  0.00  0.00    -0.268 N 
ATOM     12  C   LIG    1       54.472  54.354  30.186  0.00  0.00    +0.106 C 
ATOM     13  C   LIG    1       55.698  54.005  29.335  0.00  0.00    +0.081 C 
ATOM     14  S   LIG    1       57.039  54.591  30.258  0.00  0.00    -0.117 S 
ATOM     15  C   LIG    1       56.279  54.564  31.859  0.00  0.00    +0.152 C 
ENDBRANCH   8   9
ENDBRANCH   5   6
TORSDOF 4
ENDMDL
MODEL 7
REMARK VINA RESULT:    -5.117      6.387      7.342
REMARK INTER + INTRA:          -7.149
REMARK INTER:                  -7.106
REMARK INTRA:                  -0.043
REMARK UNBOUND:                -0.835
REMARK  Name = ligand_1
REMARK                            x       y       z     vdW  Elec       q    Type
REMARK                         _______ _______ _______ _____ _____    ______ ____
ROOT
ATOM      2  N   LIG    1       51.836  60.727  33.439  0.00  0.00    -0.305 N 
ATOM      3  C   LIG    1       51.403  60.455  32.072  0.00  0.00    +0.108 C 
ATOM      4  C   LIG    1       51.473  58.946  31.817  0.00  0.00    +0.094 C 
ATOM      5  N   LIG    1       50.736  58.222  32.864  0.00  0.00    -0.270 NA
ATOM     18  C   LIG    1       51.159  58.508  34.229  0.00  0.00    +0.094 C 
ATOM     19  C   LIG    1       51.083  60.012  34.480  0.00  0.00    +0.108 C 
ENDROOT
BRANCH   2   1
ATOM      1  C   LIG    1       52.206  62.087  33.730  0.00  0.00    +0.051 A 
ATOM     20  C   LIG    1       51.349  63.180  33.465  0.00  0.00    +0.031 A 
ATOM     21  C   LIG    1       50.141  63.020  32.791  0.00  0.00    +0.003 A 
ATOM     22  C   LIG    1       49.319  64.114  32.539  0.00  0.00    +0.000 A 
ATOM     23  C   LIG    1       49.688  65.396  32.950  0.00  0.00    +0.002 A 
ATOM     24  C   LIG    1       50.891  65.575  33.626  0.00  0.00    +0.019 A 
ATOM     25  C   LIG    1       51.708  64.477  33.879  0.00  0.00    +0.082 A 
ATOM     26  N   LIG    1       52.869  64.691  34.521  0.00  0.00    -0.241 NA
ATOM     27  C   LIG    1       53.719  63.678  34.788  0.00  0.00    +0.154 A 
ATOM     32  C   LIG    1       53.402  62.362  34.415  0.00  0.00    +0.038 A 
BRANCH  27  28
ATOM     28  C   LIG    1       54.960  64.084  35.536  0.00  0.00    +0.435 C 
ATOM     29  F   LIG    1       55.458  65.167  34.974  0.00  0.00    -0.164 F 
ATOM     30  F   LIG    1       55.878  63.141  35.630  0.00  0.00    -0.164 F 
ATOM     31  F   LIG    1       54.574  64.410  36.750  0.00  0.00    -0.164 F 
ENDBRANCH  27  28
ENDBRANCH   2   1
BRANCH   5   6
ATOM      6  C   LIG    1       50.832  56.753  32.635  0.00  0.00    +0.077 C 
ATOM      7  C   LIG    1       52.140  56.344  31.940  0.00  0.00    +0.044 C 
ATOM      8  C   LIG    1       52.373  54.897  32.373  0.00  0.00    +0.150 C 
ATOM     16  N   LIG    1       51.693  54.795  33.660  0.00  0.00    -0.209 NA
ATOM     17  C   LIG    1       50.886  55.971  33.957  0.00  0.00    +0.105 C 
BRANCH   8   9
ATOM      9  C   LIG    1       53.839  54.512  32.425  0.00  0.00    +0.242 C 
ATOM     10  O   LIG    1       54.429  54.514  33.505  0.00  0.00    -0.273 OA
ATOM     11  N   LIG    1       54.408  54.138  31.271  0.00  0.00    -0.268 N 
ATOM     12  C   LIG    1       53.645  54.168  30.016  0.00  0.00    +0.106 C 
ATOM     13  C   LIG    1       54.483  53.684  28.828  0.00  0.00    +0.081 C 
ATOM     14  S   LIG    1       56.117  53.789  29.387  0.00  0.00    -0.117 S 
ATOM     15  C   LIG    1       55.799  53.685  31.128  0.00  0.00    +0.152 C 
ENDBRANCH   8   9
ENDBRANCH   5   6
TORSDOF 4
ENDMDL
MODEL 8
REMARK VINA RESULT:    -5.030      6.569      7.831
REMARK INTER + INTRA:          -7.041
REMARK INTER:                  -6.790
REMARK INTRA:                  -0.251
REMARK UNBOUND:                -0.835
REMARK  Name = ligand_1
REMARK                            x       y       z     vdW  Elec       q    Type
REMARK                         _______ _______ _______ _____ _____    ______ ____
ROOT
ATOM      2  N   LIG    1       50.052  60.856  32.441  0.00  0.00    -0.305 N 
ATOM      3  C   LIG    1       50.159  60.482  31.034  0.00  0.00    +0.108 C 
ATOM      4  C   LIG    1       50.586  59.013  30.939  0.00  0.00    +0.094 C 
ATOM      5  N   LIG    1       49.688  58.173  31.745  0.00  0.00    -0.270 NA
ATOM     18  C   LIG    1       49.569  58.558  33.145  0.00  0.00    +0.094 C 
ATOM     19  C   LIG    1       49.139  60.021  33.235  0.00  0.00    +0.108 C 
ENDROOT
BRANCH   2   1
ATOM      1  C   LIG    1       50.047  62.266  32.725  0.00  0.00    +0.051 A 
ATOM     20  C   LIG    1       48.976  63.112  32.355  0.00  0.00    +0.031 A 
ATOM     21  C   LIG    1       47.912  62.654  31.581  0.00  0.00    +0.003 A 
ATOM     22  C   LIG    1       46.873  63.509  31.227  0.00  0.00    +0.000 A 
ATOM     23  C   LIG    1       46.875  64.845  31.632  0.00  0.00    +0.002 A 
ATOM     24  C   LIG    1       47.929  65.319  32.407  0.00  0.00    +0.019 A 
ATOM     25  C   LIG    1       48.964  64.460  32.762  0.00  0.00    +0.082 A 
ATOM     26  N   LIG    1       49.972  64.958  33.498  0.00  0.00    -0.241 NA
ATOM     27  C   LIG    1       51.017  64.189  33.868  0.00  0.00    +0.154 A 
ATOM     32  C   LIG    1       51.070  62.833  33.506  0.00  0.00    +0.038 A 
BRANCH  27  28
ATOM     28  C   LIG    1       52.045  64.893  34.711  0.00  0.00    +0.435 C 
ATOM     29  F   LIG    1       51.992  66.184  34.452  0.00  0.00    -0.164 F 
ATOM     30  F   LIG    1       53.276  64.438  34.572  0.00  0.00    -0.164 F 
ATOM     31  F   LIG    1       51.679  64.725  35.963  0.00  0.00    -0.164 F 
ENDBRANCH  27  28
ENDBRANCH   2   1
BRANCH   5   6
ATOM      6  C   LIG    1       50.123  56.750  31.679  0.00  0.00    +0.077 C 
ATOM      7  C   LIG    1       51.634  56.601  31.444  0.00  0.00    +0.044 C 
ATOM      8  C   LIG    1       51.986  55.241  32.047  0.00  0.00    +0.150 C 
ATOM     16  N   LIG    1       50.973  55.031  33.075  0.00  0.00    -0.209 NA
ATOM     17  C   LIG    1       49.909  56.024  33.017  0.00  0.00    +0.105 C 
BRANCH   8   9
ATOM      9  C   LIG    1       53.409  55.163  32.568  0.00  0.00    +0.242 C 
ATOM     10  O   LIG    1       53.636  55.412  33.752  0.00  0.00    -0.273 OA
ATOM     11  N   LIG    1       54.352  54.775  31.698  0.00  0.00    -0.268 N 
ATOM     12  C   LIG    1       54.010  54.504  30.296  0.00  0.00    +0.106 C 
ATOM     13  C   LIG    1       55.233  54.058  29.487  0.00  0.00    +0.081 C 
ATOM     14  S   LIG    1       56.584  54.551  30.449  0.00  0.00    -0.117 S 
ATOM     15  C   LIG    1       55.773  54.594  32.025  0.00  0.00    +0.152 C 
ENDBRANCH   8   9
ENDBRANCH   5   6
TORSDOF 4
ENDMDL
