MODEL 1
REMARK VINA RESULT:    -8.458      0.000      0.000
REMARK INTER + INTRA:         -11.142
REMARK INTER:                 -10.435
REMARK INTRA:                  -0.707
REMARK UNBOUND:                -0.707
REMARK  Name = ligand_1
REMARK                            x       y       z     vdW  Elec       q    Type
REMARK                         _______ _______ _______ _____ _____    ______ ____
ROOT
ATOM      2  N   LIG    1       50.240  61.782  38.314  0.00  0.00    -0.305 N 
ATOM      3  C   LIG    1       50.299  63.183  38.722  0.00  0.00    +0.108 C 
ATOM      4  C   LIG    1       51.524  63.839  38.077  0.00  0.00    +0.094 C 
ATOM      5  N   LIG    1       51.513  63.609  36.624  0.00  0.00    -0.270 NA
ATOM     18  C   LIG    1       51.437  62.212  36.218  0.00  0.00    +0.094 C 
ATOM     19  C   LIG    1       50.212  61.563  36.860  0.00  0.00    +0.108 C 
ENDROOT
BRANCH   2   1
ATOM      1  C   LIG    1       49.406  60.923  39.111  0.00  0.00    +0.051 A 
ATOM     20  C   LIG    1       49.928  59.852  39.874  0.00  0.00    +0.031 A 
ATOM     21  C   LIG    1       51.270  59.487  39.803  0.00  0.00    +0.003 A 
ATOM     22  C   LIG    1       51.756  58.426  40.561  0.00  0.00    +0.000 A 
ATOM     23  C   LIG    1       50.912  57.701  41.404  0.00  0.00    +0.002 A 
ATOM     24  C   LIG    1       49.569  58.054  41.488  0.00  0.00    +0.019 A 
ATOM     25  C   LIG    1       49.087  59.117  40.731  0.00  0.00    +0.082 A 
ATOM     26  N   LIG    1       47.781  59.419  40.828  0.00  0.00    -0.241 NA
ATOM     27  C   LIG    1       47.240  60.427  40.113  0.00  0.00    +0.154 A 
ATOM     32  C   LIG    1       48.036  61.205  39.258  0.00  0.00    +0.038 A 
BRANCH  27  28
ATOM     28  C   LIG    1       45.772  60.649  40.357  0.00  0.00    +0.435 C 
ATOM     29  F   LIG    1       45.585  61.909  40.695  0.00  0.00    -0.164 F 
ATOM     30  F   LIG    1       45.234  59.840  41.251  0.00  0.00    -0.164 F 
ATOM     31  F   LIG    1       45.169  60.455  39.204  0.00  0.00    -0.164 F 
ENDBRANCH  27  28
ENDBRANCH   2   1
BRANCH   5   6
ATOM      6  C   LIG    1       52.721  64.219  36.001  0.00  0.00    +0.077 C 
ATOM      7  C   LIG    1       53.983  64.050  36.861  0.00  0.00    +0.044 C 
ATOM      8  C   LIG    1       55.140  64.099  35.863  0.00  0.00    +0.150 C 
ATOM     16  N   LIG    1       54.552  63.638  34.610  0.00  0.00    -0.209 NA
ATOM     17  C   LIG    1       53.103  63.518  34.688  0.00  0.00    +0.105 C 
BRANCH   8   9
ATOM      9  C   LIG    1       56.349  63.294  36.303  0.00  0.00    +0.242 C 
ATOM     10  O   LIG    1       56.545  62.181  35.817  0.00  0.00    -0.273 OA
ATOM     11  N   LIG    1       57.177  63.876  37.182  0.00  0.00    -0.268 N 
ATOM     12  C   LIG    1       56.873  65.205  37.727  0.00  0.00    +0.106 C 
ATOM     13  C   LIG    1       57.960  65.684  38.697  0.00  0.00    +0.081 C 
ATOM     14  S   LIG    1       58.820  64.243  39.119  0.00  0.00    -0.117 S 
ATOM     15  C   LIG    1       58.420  63.277  37.687  0.00  0.00    +0.152 C 
ENDBRANCH   8   9
ENDBRANCH   5   6
TORSDOF 4
ENDMDL
MODEL 2
REMARK VINA RESULT:    -8.102      5.448      9.864
REMARK INTER + INTRA:         -10.703
REMARK INTER:                  -9.888
REMARK INTRA:                  -0.815
REMARK UNBOUND:                -0.707
REMARK  Name = ligand_1
REMARK                            x       y       z     vdW  Elec       q    Type
REMARK                         _______ _______ _______ _____ _____    ______ ____
ROOT
ATOM      2  N   LIG    1       51.212  62.611  37.440  0.00  0.00    -0.305 N 
ATOM      3  C   LIG    1       50.814  63.368  38.623  0.00  0.00    +0.108 C 
ATOM      4  C   LIG    1       49.651  62.646  39.311  0.00  0.00    +0.094 C 
ATOM      5  N   LIG    1       50.004  61.239  39.556  0.00  0.00    -0.270 NA
ATOM     18  C   LIG    1       50.417  60.489  38.377  0.00  0.00    +0.094 C 
ATOM     19  C   LIG    1       51.579  61.210  37.698  0.00  0.00    +0.108 C 
ENDROOT
BRANCH   2   1
ATOM      1  C   LIG    1       52.005  63.317  36.470  0.00  0.00    +0.051 A 
ATOM     20  C   LIG    1       51.437  63.951  35.340  0.00  0.00    +0.031 A 
ATOM     21  C   LIG    1       50.086  63.825  35.030  0.00  0.00    +0.003 A 
ATOM     22  C   LIG    1       49.553  64.455  33.909  0.00  0.00    +0.000 A 
ATOM     23  C   LIG    1       50.361  65.222  33.068  0.00  0.00    +0.002 A 
ATOM     24  C   LIG    1       51.714  65.360  33.364  0.00  0.00    +0.019 A 
ATOM     25  C   LIG    1       52.241  64.731  34.487  0.00  0.00    +0.082 A 
ATOM     26  N   LIG    1       53.554  64.875  34.732  0.00  0.00    -0.241 NA
ATOM     27  C   LIG    1       54.139  64.283  35.794  0.00  0.00    +0.154 A 
ATOM     32  C   LIG    1       53.381  63.510  36.688  0.00  0.00    +0.038 A 
BRANCH  27  28
ATOM     28  C   LIG    1       55.609  64.567  35.938  0.00  0.00    +0.435 C 
ATOM     29  F   LIG    1       55.917  64.566  37.219  0.00  0.00    -0.164 F 
ATOM     30  F   LIG    1       56.013  65.683  35.360  0.00  0.00    -0.164 F 
ATOM     31  F   LIG    1       56.240  63.557  35.378  0.00  0.00    -0.164 F 
ENDBRANCH  27  28
ENDBRANCH   2   1
BRANCH   5   6
ATOM      6  C   LIG    1       48.861  60.529  40.194  0.00  0.00    +0.077 C 
ATOM      7  C   LIG    1       48.561  59.173  39.537  0.00  0.00    +0.044 C 
ATOM      8  C   LIG    1       47.898  58.347  40.638  0.00  0.00    +0.150 C 
ATOM     16  N   LIG    1       48.421  58.915  41.876  0.00  0.00    -0.209 NA
ATOM     17  C   LIG    1       49.169  60.144  41.650  0.00  0.00    +0.105 C 
BRANCH   8   9
ATOM      9  C   LIG    1       48.140  56.855  40.502  0.00  0.00    +0.242 C 
ATOM     10  O   LIG    1       49.198  56.374  40.904  0.00  0.00    -0.273 OA
ATOM     11  N   LIG    1       47.145  56.125  39.979  0.00  0.00    -0.268 N 
ATOM     12  C   LIG    1       45.911  56.771  39.510  0.00  0.00    +0.106 C 
ATOM     13  C   LIG    1       44.905  55.749  38.969  0.00  0.00    +0.081 C 
ATOM     14  S   LIG    1       45.852  54.330  38.677  0.00  0.00    -0.117 S 
ATOM     15  C   LIG    1       47.172  54.666  39.812  0.00  0.00    +0.152 C 
ENDBRANCH   8   9
ENDBRANCH   5   6
TORSDOF 4
ENDMDL
MODEL 3
REMARK VINA RESULT:    -7.690      4.992      9.314
REMARK INTER + INTRA:         -10.195
REMARK INTER:                  -9.808
REMARK INTRA:                  -0.387
REMARK UNBOUND:                -0.707
REMARK  Name = ligand_1
REMARK                            x       y       z     vdW  Elec       q    Type
REMARK                         _______ _______ _______ _____ _____    ______ ____
ROOT
ATOM      2  N   LIG    1       50.945  62.356  37.167  0.00  0.00    -0.305 N 
ATOM      3  C   LIG    1       50.177  61.279  36.548  0.00  0.00    +0.108 C 
ATOM      4  C   LIG    1       49.703  60.313  37.639  0.00  0.00    +0.094 C 
ATOM      5  N   LIG    1       49.003  61.054  38.699  0.00  0.00    -0.270 NA
ATOM     18  C   LIG    1       49.765  62.139  39.304  0.00  0.00    +0.094 C 
ATOM     19  C   LIG    1       50.231  63.101  38.214  0.00  0.00    +0.108 C 
ENDROOT
BRANCH   2   1
ATOM      1  C   LIG    1       51.784  63.124  36.287  0.00  0.00    +0.051 A 
ATOM     20  C   LIG    1       51.267  63.875  35.205  0.00  0.00    +0.031 A 
ATOM     21  C   LIG    1       49.921  63.818  34.850  0.00  0.00    +0.003 A 
ATOM     22  C   LIG    1       49.439  64.563  33.778  0.00  0.00    +0.000 A 
ATOM     23  C   LIG    1       50.291  65.379  33.032  0.00  0.00    +0.002 A 
ATOM     24  C   LIG    1       51.638  65.450  33.375  0.00  0.00    +0.019 A 
ATOM     25  C   LIG    1       52.115  64.705  34.449  0.00  0.00    +0.082 A 
ATOM     26  N   LIG    1       53.424  64.788  34.740  0.00  0.00    -0.241 NA
ATOM     27  C   LIG    1       53.962  64.084  35.758  0.00  0.00    +0.154 A 
ATOM     32  C   LIG    1       53.158  63.256  36.557  0.00  0.00    +0.038 A 
BRANCH  27  28
ATOM     28  C   LIG    1       55.435  64.311  35.966  0.00  0.00    +0.435 C 
ATOM     29  F   LIG    1       56.082  63.212  35.634  0.00  0.00    -0.164 F 
ATOM     30  F   LIG    1       55.765  64.700  37.183  0.00  0.00    -0.164 F 
ATOM     31  F   LIG    1       55.791  65.251  35.117  0.00  0.00    -0.164 F 
ENDBRANCH  27  28
ENDBRANCH   2   1
BRANCH   5   6
ATOM      6  C   LIG    1       48.571  60.119  39.776  0.00  0.00    +0.077 C 
ATOM      7  C   LIG    1       49.344  58.792  39.756  0.00  0.00    +0.044 C 
ATOM      8  C   LIG    1       49.285  58.288  41.198  0.00  0.00    +0.150 C 
ATOM     16  N   LIG    1       49.136  59.500  41.995  0.00  0.00    -0.209 NA
ATOM     17  C   LIG    1       48.880  60.676  41.175  0.00  0.00    +0.105 C 
BRANCH   8   9
ATOM      9  C   LIG    1       50.483  57.443  41.590  0.00  0.00    +0.242 C 
ATOM     10  O   LIG    1       51.611  57.934  41.547  0.00  0.00    -0.273 OA
ATOM     11  N   LIG    1       50.232  56.197  42.015  0.00  0.00    -0.268 N 
ATOM     12  C   LIG    1       48.859  55.675  42.031  0.00  0.00    +0.106 C 
ATOM     13  C   LIG    1       48.802  54.241  42.568  0.00  0.00    +0.081 C 
ATOM     14  S   LIG    1       50.434  53.675  42.451  0.00  0.00    -0.117 S 
ATOM     15  C   LIG    1       51.252  55.248  42.482  0.00  0.00    +0.152 C 
ENDBRANCH   8   9
ENDBRANCH   5   6
TORSDOF 4
ENDMDL
MODEL 4
REMARK VINA RESULT:    -7.631      4.572      8.753
REMARK INTER + INTRA:         -10.123
REMARK INTER:                  -9.369
REMARK INTRA:                  -0.754
REMARK UNBOUND:                -0.707
REMARK  Name = ligand_1
REMARK                            x       y       z     vdW  Elec       q    Type
REMARK                         _______ _______ _______ _____ _____    ______ ____
ROOT
ATOM      2  N   LIG    1       50.838  62.981  36.735  0.00  0.00    -0.305 N 
ATOM      3  C   LIG    1       49.589  62.426  36.221  0.00  0.00    +0.108 C 
ATOM      4  C   LIG    1       49.161  61.253  37.108  0.00  0.00    +0.094 C 
ATOM      5  N   LIG    1       49.129  61.672  38.518  0.00  0.00    -0.270 NA
ATOM     18  C   LIG    1       50.371  62.241  39.025  0.00  0.00    +0.094 C 
ATOM     19  C   LIG    1       50.791  63.413  38.140  0.00  0.00    +0.108 C 
ENDROOT
BRANCH   2   1
ATOM      1  C   LIG    1       51.583  63.814  35.829  0.00  0.00    +0.051 A 
ATOM     20  C   LIG    1       52.994  63.768  35.741  0.00  0.00    +0.031 A 
ATOM     21  C   LIG    1       53.759  63.000  36.615  0.00  0.00    +0.003 A 
ATOM     22  C   LIG    1       55.147  62.976  36.510  0.00  0.00    +0.000 A 
ATOM     23  C   LIG    1       55.803  63.725  35.531  0.00  0.00    +0.002 A 
ATOM     24  C   LIG    1       55.054  64.496  34.648  0.00  0.00    +0.019 A 
ATOM     25  C   LIG    1       53.667  64.514  34.755  0.00  0.00    +0.082 A 
ATOM     26  N   LIG    1       52.979  65.283  33.894  0.00  0.00    -0.241 NA
ATOM     27  C   LIG    1       51.633  65.362  33.947  0.00  0.00    +0.154 A 
ATOM     32  C   LIG    1       50.910  64.623  34.897  0.00  0.00    +0.038 A 
BRANCH  27  28
ATOM     28  C   LIG    1       51.017  66.245  32.896  0.00  0.00    +0.435 C 
ATOM     29  F   LIG    1       51.102  67.499  33.294  0.00  0.00    -0.164 F 
ATOM     30  F   LIG    1       49.773  65.937  32.579  0.00  0.00    -0.164 F 
ATOM     31  F   LIG    1       51.763  66.120  31.820  0.00  0.00    -0.164 F 
ENDBRANCH  27  28
ENDBRANCH   2   1
BRANCH   5   6
ATOM      6  C   LIG    1       48.745  60.523  39.384  0.00  0.00    +0.077 C 
ATOM      7  C   LIG    1       49.683  59.317  39.222  0.00  0.00    +0.044 C 
ATOM      8  C   LIG    1       49.585  58.569  40.552  0.00  0.00    +0.150 C 
ATOM     16  N   LIG    1       49.223  59.601  41.517  0.00  0.00    -0.209 NA
ATOM     17  C   LIG    1       48.877  60.863  40.877  0.00  0.00    +0.105 C 
BRANCH   8   9
ATOM      9  C   LIG    1       50.851  57.814  40.913  0.00  0.00    +0.242 C 
ATOM     10  O   LIG    1       51.947  58.303  40.642  0.00  0.00    -0.273 OA
ATOM     11  N   LIG    1       50.698  56.652  41.563  0.00  0.00    -0.268 N 
ATOM     12  C   LIG    1       49.357  56.124  41.845  0.00  0.00    +0.106 C 
ATOM     13  C   LIG    1       49.417  54.797  42.609  0.00  0.00    +0.081 C 
ATOM     14  S   LIG    1       51.037  54.238  42.369  0.00  0.00    -0.117 S 
ATOM     15  C   LIG    1       51.800  55.803  42.037  0.00  0.00    +0.152 C 
ENDBRANCH   8   9
ENDBRANCH   5   6
TORSDOF 4
ENDMDL
MODEL 5
REMARK VINA RESULT:    -7.266      4.616      7.965
REMARK INTER + INTRA:          -9.671
REMARK INTER:                  -8.735
REMARK INTRA:                  -0.936
REMARK UNBOUND:                -0.707
REMARK  Name = ligand_1
REMARK                            x       y       z     vdW  Elec       q    Type
REMARK                         _______ _______ _______ _____ _____    ______ ____
ROOT
ATOM      2  N   LIG    1       49.155  61.912  36.322  0.00  0.00    -0.305 N 
ATOM      3  C   LIG    1       49.463  60.568  35.843  0.00  0.00    +0.108 C 
ATOM      4  C   LIG    1       49.872  59.695  37.034  0.00  0.00    +0.094 C 
ATOM      5  N   LIG    1       48.848  59.767  38.087  0.00  0.00    -0.270 NA
ATOM     18  C   LIG    1       48.530  61.111  38.552  0.00  0.00    +0.094 C 
ATOM     19  C   LIG    1       48.118  61.976  37.363  0.00  0.00    +0.108 C 
ENDROOT
BRANCH   2   1
ATOM      1  C   LIG    1       49.134  62.952  35.327  0.00  0.00    +0.051 A 
ATOM     20  C   LIG    1       50.227  63.824  35.116  0.00  0.00    +0.031 A 
ATOM     21  C   LIG    1       51.347  63.811  35.944  0.00  0.00    +0.003 A 
ATOM     22  C   LIG    1       52.407  64.684  35.717  0.00  0.00    +0.000 A 
ATOM     23  C   LIG    1       52.370  65.595  34.661  0.00  0.00    +0.002 A 
ATOM     24  C   LIG    1       51.260  65.621  33.823  0.00  0.00    +0.019 A 
ATOM     25  C   LIG    1       50.204  64.745  34.051  0.00  0.00    +0.082 A 
ATOM     26  N   LIG    1       49.142  64.810  33.230  0.00  0.00    -0.241 NA
ATOM     27  C   LIG    1       48.075  64.002  33.398  0.00  0.00    +0.154 A 
ATOM     32  C   LIG    1       48.054  63.052  34.432  0.00  0.00    +0.038 A 
BRANCH  27  28
ATOM     28  C   LIG    1       46.984  64.185  32.378  0.00  0.00    +0.435 C 
ATOM     29  F   LIG    1       46.556  62.997  31.999  0.00  0.00    -0.164 F 
ATOM     30  F   LIG    1       47.325  64.916  31.334  0.00  0.00    -0.164 F 
ATOM     31  F   LIG    1       45.991  64.784  32.999  0.00  0.00    -0.164 F 
ENDBRANCH  27  28
ENDBRANCH   2   1
BRANCH   5   6
ATOM      6  C   LIG    1       49.261  58.945  39.259  0.00  0.00    +0.077 C 
ATOM      7  C   LIG    1       50.457  58.031  38.951  0.00  0.00    +0.044 C 
ATOM      8  C   LIG    1       51.132  57.806  40.304  0.00  0.00    +0.150 C 
ATOM     16  N   LIG    1       50.781  58.991  41.080  0.00  0.00    -0.209 NA
ATOM     17  C   LIG    1       49.783  59.816  40.413  0.00  0.00    +0.105 C 
BRANCH   8   9
ATOM      9  C   LIG    1       52.626  57.565  40.200  0.00  0.00    +0.242 C 
ATOM     10  O   LIG    1       53.291  58.216  39.395  0.00  0.00    -0.273 OA
ATOM     11  N   LIG    1       53.155  56.668  41.044  0.00  0.00    -0.268 N 
ATOM     12  C   LIG    1       52.297  55.920  41.973  0.00  0.00    +0.106 C 
ATOM     13  C   LIG    1       53.110  54.965  42.854  0.00  0.00    +0.081 C 
ATOM     14  S   LIG    1       54.624  54.808  42.030  0.00  0.00    -0.117 S 
ATOM     15  C   LIG    1       54.583  56.334  41.128  0.00  0.00    +0.152 C 
ENDBRANCH   8   9
ENDBRANCH   5   6
TORSDOF 4
ENDMDL
MODEL 6
REMARK VINA RESULT:    -7.069      5.011      6.606
REMARK INTER + INTRA:          -9.429
REMARK INTER:                  -8.818
REMARK INTRA:                  -0.611
REMARK UNBOUND:                -0.707
REMARK  Name = ligand_1
REMARK                            x       y       z     vdW  Elec       q    Type
REMARK                         _______ _______ _______ _____ _____    ______ ____
ROOT
ATOM      2  N   LIG    1       50.855  58.560  40.426  0.00  0.00    -0.305 N 
ATOM      3  C   LIG    1       51.890  58.969  39.482  0.00  0.00    +0.108 C 
ATOM      4  C   LIG    1       51.250  59.813  38.374  0.00  0.00    +0.094 C 
ATOM      5  N   LIG    1       50.469  60.911  38.964  0.00  0.00    -0.270 NA
ATOM     18  C   LIG    1       49.447  60.502  39.919  0.00  0.00    +0.094 C 
ATOM     19  C   LIG    1       50.090  59.666  41.023  0.00  0.00    +0.108 C 
ENDROOT
BRANCH   2   1
ATOM      1  C   LIG    1       51.186  57.462  41.295  0.00  0.00    +0.051 A 
ATOM     20  C   LIG    1       50.358  56.323  41.430  0.00  0.00    +0.031 A 
ATOM     21  C   LIG    1       49.108  56.249  40.821  0.00  0.00    +0.003 A 
ATOM     22  C   LIG    1       48.311  55.118  40.973  0.00  0.00    +0.000 A 
ATOM     23  C   LIG    1       48.743  54.036  41.743  0.00  0.00    +0.002 A 
ATOM     24  C   LIG    1       49.991  54.093  42.356  0.00  0.00    +0.019 A 
ATOM     25  C   LIG    1       50.785  55.224  42.199  0.00  0.00    +0.082 A 
ATOM     26  N   LIG    1       51.977  55.248  42.819  0.00  0.00    -0.241 NA
ATOM     27  C   LIG    1       52.795  56.317  42.723  0.00  0.00    +0.154 A 
ATOM     32  C   LIG    1       52.427  57.432  41.953  0.00  0.00    +0.038 A 
BRANCH  27  28
ATOM     28  C   LIG    1       54.102  56.172  43.455  0.00  0.00    +0.435 C 
ATOM     29  F   LIG    1       53.918  56.502  44.718  0.00  0.00    -0.164 F 
ATOM     30  F   LIG    1       55.103  56.854  42.933  0.00  0.00    -0.164 F 
ATOM     31  F   LIG    1       54.407  54.892  43.422  0.00  0.00    -0.164 F 
ENDBRANCH  27  28
ENDBRANCH   2   1
BRANCH   5   6
ATOM      6  C   LIG    1       49.820  61.711  37.888  0.00  0.00    +0.077 C 
ATOM      7  C   LIG    1       50.658  62.927  37.463  0.00  0.00    +0.044 C 
ATOM      8  C   LIG    1       50.234  63.204  36.020  0.00  0.00    +0.150 C 
ATOM     16  N   LIG    1       49.785  61.908  35.524  0.00  0.00    -0.209 NA
ATOM     17  C   LIG    1       49.687  60.912  36.582  0.00  0.00    +0.105 C 
BRANCH   8   9
ATOM      9  C   LIG    1       51.331  63.832  35.181  0.00  0.00    +0.242 C 
ATOM     10  O   LIG    1       52.504  63.717  35.532  0.00  0.00    -0.273 OA
ATOM     11  N   LIG    1       50.951  64.451  34.054  0.00  0.00    -0.268 N 
ATOM     12  C   LIG    1       49.529  64.557  33.702  0.00  0.00    +0.106 C 
ATOM     13  C   LIG    1       49.326  65.285  32.369  0.00  0.00    +0.081 C 
ATOM     14  S   LIG    1       50.822  66.111  32.100  0.00  0.00    -0.117 S 
ATOM     15  C   LIG    1       51.867  65.074  33.089  0.00  0.00    +0.152 C 
ENDBRANCH   8   9
ENDBRANCH   5   6
TORSDOF 4
ENDMDL
MODEL 7
REMARK VINA RESULT:    -7.028      5.592      7.176
REMARK INTER + INTRA:          -9.379
REMARK INTER:                  -8.548
REMARK INTRA:                  -0.831
REMARK UNBOUND:                -0.707
REMARK  Name = ligand_1
REMARK                            x       y       z     vdW  Elec       q    Type
REMARK                         _______ _______ _______ _____ _____    ______ ____
ROOT
ATOM      2  N   LIG    1       52.456  58.087  38.698  0.00  0.00    -0.305 N 
ATOM      3  C   LIG    1       51.950  57.193  37.660  0.00  0.00    +0.108 C 
ATOM      4  C   LIG    1       53.128  56.443  37.030  0.00  0.00    +0.094 C 
ATOM      5  N   LIG    1       53.933  55.796  38.078  0.00  0.00    -0.270 NA
ATOM     18  C   LIG    1       54.423  56.687  39.122  0.00  0.00    +0.094 C 
ATOM     19  C   LIG    1       53.245  57.429  39.750  0.00  0.00    +0.108 C 
ENDROOT
BRANCH   2   1
ATOM      1  C   LIG    1       51.568  59.137  39.120  0.00  0.00    +0.051 A 
ATOM     20  C   LIG    1       51.447  60.358  38.417  0.00  0.00    +0.031 A 
ATOM     21  C   LIG    1       52.272  60.670  37.340  0.00  0.00    +0.003 A 
ATOM     22  C   LIG    1       52.135  61.881  36.668  0.00  0.00    +0.000 A 
ATOM     23  C   LIG    1       51.173  62.813  37.062  0.00  0.00    +0.002 A 
ATOM     24  C   LIG    1       50.338  62.517  38.135  0.00  0.00    +0.019 A 
ATOM     25  C   LIG    1       50.477  61.304  38.802  0.00  0.00    +0.082 A 
ATOM     26  N   LIG    1       49.663  61.060  39.843  0.00  0.00    -0.241 NA
ATOM     27  C   LIG    1       49.749  59.912  40.546  0.00  0.00    +0.154 A 
ATOM     32  C   LIG    1       50.685  58.926  40.193  0.00  0.00    +0.038 A 
BRANCH  27  28
ATOM     28  C   LIG    1       48.748  59.786  41.662  0.00  0.00    +0.435 C 
ATOM     29  F   LIG    1       49.380  59.907  42.812  0.00  0.00    -0.164 F 
ATOM     30  F   LIG    1       48.032  58.678  41.636  0.00  0.00    -0.164 F 
ATOM     31  F   LIG    1       47.932  60.812  41.549  0.00  0.00    -0.164 F 
ENDBRANCH  27  28
ENDBRANCH   2   1
BRANCH   5   6
ATOM      6  C   LIG    1       55.097  55.094  37.468  0.00  0.00    +0.077 C 
ATOM      7  C   LIG    1       55.254  55.395  35.969  0.00  0.00    +0.044 C 
ATOM      8  C   LIG    1       56.742  55.189  35.687  0.00  0.00    +0.150 C 
ATOM     16  N   LIG    1       57.389  55.448  36.969  0.00  0.00    -0.209 NA
ATOM     17  C   LIG    1       56.431  55.580  38.058  0.00  0.00    +0.105 C 
BRANCH   8   9
ATOM      9  C   LIG    1       57.266  56.051  34.554  0.00  0.00    +0.242 C 
ATOM     10  O   LIG    1       57.656  57.194  34.793  0.00  0.00    -0.273 OA
ATOM     11  N   LIG    1       57.317  55.489  33.339  0.00  0.00    -0.268 N 
ATOM     12  C   LIG    1       56.825  54.121  33.126  0.00  0.00    +0.106 C 
ATOM     13  C   LIG    1       56.995  53.675  31.670  0.00  0.00    +0.081 C 
ATOM     14  S   LIG    1       57.229  55.150  30.795  0.00  0.00    -0.117 S 
ATOM     15  C   LIG    1       57.836  56.145  32.131  0.00  0.00    +0.152 C 
ENDBRANCH   8   9
ENDBRANCH   5   6
TORSDOF 4
ENDMDL
MODEL 8
REMARK VINA RESULT:    -6.966      5.809      9.218
REMARK INTER + INTRA:          -9.302
REMARK INTER:                  -8.622
REMARK INTRA:                  -0.680
REMARK UNBOUND:                -0.707
REMARK  Name = ligand_1
REMARK                            x       y       z     vdW  Elec       q    Type
REMARK                         _______ _______ _______ _____ _____    ______ ____
ROOT
ATOM      2  N   LIG    1       50.206  62.576  35.753  0.00  0.00    -0.305 N 
ATOM      3  C   LIG    1       50.722  63.229  36.952  0.00  0.00    +0.108 C 
ATOM      4  C   LIG    1       50.715  62.224  38.110  0.00  0.00    +0.094 C 
ATOM      5  N   LIG    1       51.417  60.994  37.714  0.00  0.00    -0.270 NA
ATOM     18  C   LIG    1       50.912  60.352  36.507  0.00  0.00    +0.094 C 
ATOM     19  C   LIG    1       50.925  61.356  35.356  0.00  0.00    +0.108 C 
ENDROOT
BRANCH   2   1
ATOM      1  C   LIG    1       49.776  63.446  34.691  0.00  0.00    +0.051 A 
ATOM     20  C   LIG    1       48.436  63.493  34.242  0.00  0.00    +0.031 A 
ATOM     21  C   LIG    1       47.471  62.609  34.719  0.00  0.00    +0.003 A 
ATOM     22  C   LIG    1       46.160  62.674  34.257  0.00  0.00    +0.000 A 
ATOM     23  C   LIG    1       45.783  63.621  33.303  0.00  0.00    +0.002 A 
ATOM     24  C   LIG    1       46.734  64.513  32.817  0.00  0.00    +0.019 A 
ATOM     25  C   LIG    1       48.043  64.447  33.284  0.00  0.00    +0.082 A 
ATOM     26  N   LIG    1       48.936  65.315  32.780  0.00  0.00    -0.241 NA
ATOM     27  C   LIG    1       50.227  65.301  33.175  0.00  0.00    +0.154 A 
ATOM     32  C   LIG    1       50.668  64.384  34.142  0.00  0.00    +0.038 A 
BRANCH  27  28
ATOM     28  C   LIG    1       51.088  66.355  32.534  0.00  0.00    +0.435 C 
ATOM     29  F   LIG    1       50.340  67.405  32.261  0.00  0.00    -0.164 F 
ATOM     30  F   LIG    1       51.742  65.953  31.460  0.00  0.00    -0.164 F 
ATOM     31  F   LIG    1       51.967  66.721  33.443  0.00  0.00    -0.164 F 
ENDBRANCH  27  28
ENDBRANCH   2   1
BRANCH   5   6
ATOM      6  C   LIG    1       51.382  60.005  38.827  0.00  0.00    +0.077 C 
ATOM      7  C   LIG    1       50.110  60.117  39.682  0.00  0.00    +0.044 C 
ATOM      8  C   LIG    1       49.919  58.721  40.277  0.00  0.00    +0.150 C 
ATOM     16  N   LIG    1       50.565  57.832  39.318  0.00  0.00    -0.209 NA
ATOM     17  C   LIG    1       51.320  58.560  38.306  0.00  0.00    +0.105 C 
BRANCH   8   9
ATOM      9  C   LIG    1       48.467  58.375  40.548  0.00  0.00    +0.242 C 
ATOM     10  O   LIG    1       47.577  59.050  40.031  0.00  0.00    -0.273 OA
ATOM     11  N   LIG    1       48.234  57.302  41.316  0.00  0.00    -0.268 N 
ATOM     12  C   LIG    1       49.348  56.549  41.907  0.00  0.00    +0.106 C 
ATOM     13  C   LIG    1       48.854  55.355  42.730  0.00  0.00    +0.081 C 
ATOM     14  S   LIG    1       47.184  55.700  43.024  0.00  0.00    -0.117 S 
ATOM     15  C   LIG    1       46.901  56.783  41.649  0.00  0.00    +0.152 C 
ENDBRANCH   8   9
ENDBRANCH   5   6
TORSDOF 4
ENDMDL
MODEL 9
REMARK VINA RESULT:    -6.862      5.523      8.541
REMARK INTER + INTRA:          -9.173
REMARK INTER:                  -8.470
REMARK INTRA:                  -0.703
REMARK UNBOUND:                -0.707
REMARK  Name = ligand_1
REMARK                            x       y       z     vdW  Elec       q    Type
REMARK                         _______ _______ _______ _____ _____    ______ ____
ROOT
ATOM      2  N   LIG    1       49.986  62.218  35.828  0.00  0.00    -0.305 N 
ATOM      3  C   LIG    1       49.900  62.686  37.207  0.00  0.00    +0.108 C 
ATOM      4  C   LIG    1       49.757  61.477  38.137  0.00  0.00    +0.094 C 
ATOM      5  N   LIG    1       50.830  60.506  37.870  0.00  0.00    -0.270 NA
ATOM     18  C   LIG    1       50.925  60.052  36.489  0.00  0.00    +0.094 C 
ATOM     19  C   LIG    1       51.072  61.260  35.567  0.00  0.00    +0.108 C 
ENDROOT
BRANCH   2   1
ATOM      1  C   LIG    1       49.733  63.199  34.806  0.00  0.00    +0.051 A 
ATOM     20  C   LIG    1       48.468  63.345  34.190  0.00  0.00    +0.031 A 
ATOM     21  C   LIG    1       47.421  62.464  34.447  0.00  0.00    +0.003 A 
ATOM     22  C   LIG    1       46.187  62.628  33.823  0.00  0.00    +0.000 A 
ATOM     23  C   LIG    1       45.974  63.674  32.923  0.00  0.00    +0.002 A 
ATOM     24  C   LIG    1       47.009  64.564  32.656  0.00  0.00    +0.019 A 
ATOM     25  C   LIG    1       48.239  64.398  33.284  0.00  0.00    +0.082 A 
ATOM     26  N   LIG    1       49.219  65.269  32.990  0.00  0.00    -0.241 NA
ATOM     27  C   LIG    1       50.442  65.163  33.549  0.00  0.00    +0.154 A 
ATOM     32  C   LIG    1       50.719  64.144  34.474  0.00  0.00    +0.038 A 
BRANCH  27  28
ATOM     28  C   LIG    1       51.415  66.233  33.133  0.00  0.00    +0.435 C 
ATOM     29  F   LIG    1       52.353  65.685  32.387  0.00  0.00    -0.164 F 
ATOM     30  F   LIG    1       51.948  66.910  34.133  0.00  0.00    -0.164 F 
ATOM     31  F   LIG    1       50.744  67.072  32.374  0.00  0.00    -0.164 F 
ENDBRANCH  27  28
ENDBRANCH   2   1
BRANCH   5   6
ATOM      6  C   LIG    1       50.672  59.315  38.751  0.00  0.00    +0.077 C 
ATOM      7  C   LIG    1       51.845  58.329  38.634  0.00  0.00    +0.044 C 
ATOM      8  C   LIG    1       51.872  57.599  39.976  0.00  0.00    +0.150 C 
ATOM     16  N   LIG    1       51.278  58.547  40.913  0.00  0.00    -0.209 NA
ATOM     17  C   LIG    1       50.694  59.699  40.240  0.00  0.00    +0.105 C 
BRANCH   8   9
ATOM      9  C   LIG    1       53.258  57.130  40.379  0.00  0.00    +0.242 C 
ATOM     10  O   LIG    1       54.246  57.732  39.961  0.00  0.00    -0.273 OA
ATOM     11  N   LIG    1       53.324  56.091  41.224  0.00  0.00    -0.268 N 
ATOM     12  C   LIG    1       52.100  55.415  41.674  0.00  0.00    +0.106 C 
ATOM     13  C   LIG    1       52.408  54.270  42.646  0.00  0.00    +0.081 C 
ATOM     14  S   LIG    1       54.089  53.943  42.402  0.00  0.00    -0.117 S 
ATOM     15  C   LIG    1       54.568  55.526  41.764  0.00  0.00    +0.152 C 
ENDBRANCH   8   9
ENDBRANCH   5   6
TORSDOF 4
ENDMDL
