MODEL 1
REMARK VINA RESULT:    -8.309      0.000      0.000
REMARK INTER + INTRA:         -11.033
REMARK INTER:                 -10.252
REMARK INTRA:                  -0.781
REMARK UNBOUND:                -0.781
REMARK  Name = ligand_1
REMARK                            x       y       z     vdW  Elec       q    Type
REMARK                         _______ _______ _______ _____ _____    ______ ____
ROOT
ATOM      2  N   LIG    1       50.187  61.698  38.442  0.00  0.00    -0.305 N 
ATOM      3  C   LIG    1       50.143  63.111  38.804  0.00  0.00    +0.108 C 
ATOM      4  C   LIG    1       51.364  63.818  38.205  0.00  0.00    +0.094 C 
ATOM      5  N   LIG    1       51.449  63.541  36.762  0.00  0.00    -0.270 NA
ATOM     18  C   LIG    1       51.476  62.130  36.402  0.00  0.00    +0.094 C 
ATOM     19  C   LIG    1       50.256  61.431  36.997  0.00  0.00    +0.108 C 
ENDROOT
BRANCH   2   1
ATOM      1  C   LIG    1       49.359  60.816  39.222  0.00  0.00    +0.051 A 
ATOM     20  C   LIG    1       49.890  59.745  39.978  0.00  0.00    +0.031 A 
ATOM     21  C   LIG    1       51.239  59.402  39.917  0.00  0.00    +0.003 A 
ATOM     22  C   LIG    1       51.735  58.340  40.668  0.00  0.00    +0.000 A 
ATOM     23  C   LIG    1       50.893  57.593  41.494  0.00  0.00    +0.002 A 
ATOM     24  C   LIG    1       49.544  57.924  41.569  0.00  0.00    +0.019 A 
ATOM     25  C   LIG    1       49.053  58.988  40.818  0.00  0.00    +0.082 A 
ATOM     26  N   LIG    1       47.742  59.268  40.905  0.00  0.00    -0.241 NA
ATOM     27  C   LIG    1       47.192  60.276  40.197  0.00  0.00    +0.154 A 
ATOM     32  C   LIG    1       47.984  61.075  39.358  0.00  0.00    +0.038 A 
BRANCH  27  28
ATOM     28  C   LIG    1       45.718  60.472  40.428  0.00  0.00    +0.435 C 
ATOM     29  F   LIG    1       45.516  61.706  40.843  0.00  0.00    -0.164 F 
ATOM     30  F   LIG    1       45.171  59.603  41.258  0.00  0.00    -0.164 F 
ATOM     31  F   LIG    1       45.136  60.349  39.255  0.00  0.00    -0.164 F 
ENDBRANCH  27  28
ENDBRANCH   2   1
BRANCH   5   6
ATOM      6  C   LIG    1       52.654  64.201  36.186  0.00  0.00    +0.077 C 
ATOM      7  C   LIG    1       53.915  63.982  37.035  0.00  0.00    +0.044 C 
ATOM      8  C   LIG    1       55.075  64.107  36.047  0.00  0.00    +0.150 C 
ATOM     16  N   LIG    1       54.493  63.730  34.763  0.00  0.00    -0.209 NA
ATOM     17  C   LIG    1       53.044  63.595  34.828  0.00  0.00    +0.105 C 
BRANCH   8   9
ATOM      9  C   LIG    1       56.288  63.282  36.433  0.00  0.00    +0.242 C 
ATOM     10  O   LIG    1       56.436  62.160  35.950  0.00  0.00    -0.273 OA
ATOM     11  N   LIG    1       57.172  63.856  37.261  0.00  0.00    -0.268 N 
ATOM     12  C   LIG    1       56.924  65.197  37.806  0.00  0.00    +0.106 C 
ATOM     13  C   LIG    1       58.068  65.663  38.712  0.00  0.00    +0.081 C 
ATOM     14  S   LIG    1       58.920  64.210  39.107  0.00  0.00    -0.117 S 
ATOM     15  C   LIG    1       58.427  63.237  37.709  0.00  0.00    +0.152 C 
ENDBRANCH   8   9
ENDBRANCH   5   6
TORSDOF 4
ENDMDL
MODEL 2
REMARK VINA RESULT:    -7.965      5.455      9.847
REMARK INTER + INTRA:         -10.609
REMARK INTER:                  -9.818
REMARK INTRA:                  -0.790
REMARK UNBOUND:                -0.781
REMARK  Name = ligand_1
REMARK                            x       y       z     vdW  Elec       q    Type
REMARK                         _______ _______ _______ _____ _____    ______ ____
ROOT
ATOM      2  N   LIG    1       51.030  62.421  37.608  0.00  0.00    -0.305 N 
ATOM      3  C   LIG    1       50.560  63.222  38.735  0.00  0.00    +0.108 C 
ATOM      4  C   LIG    1       49.466  62.447  39.477  0.00  0.00    +0.094 C 
ATOM      5  N   LIG    1       49.948  61.100  39.822  0.00  0.00    -0.270 NA
ATOM     18  C   LIG    1       50.432  60.308  38.699  0.00  0.00    +0.094 C 
ATOM     19  C   LIG    1       51.525  61.083  37.965  0.00  0.00    +0.108 C 
ENDROOT
BRANCH   2   1
ATOM      1  C   LIG    1       51.757  63.126  36.587  0.00  0.00    +0.051 A 
ATOM     20  C   LIG    1       51.117  63.753  35.493  0.00  0.00    +0.031 A 
ATOM     21  C   LIG    1       49.748  63.623  35.271  0.00  0.00    +0.003 A 
ATOM     22  C   LIG    1       49.143  64.247  34.184  0.00  0.00    +0.000 A 
ATOM     23  C   LIG    1       49.893  65.013  33.290  0.00  0.00    +0.002 A 
ATOM     24  C   LIG    1       51.262  65.156  33.498  0.00  0.00    +0.019 A 
ATOM     25  C   LIG    1       51.861  64.532  34.588  0.00  0.00    +0.082 A 
ATOM     26  N   LIG    1       53.187  64.681  34.747  0.00  0.00    -0.241 NA
ATOM     27  C   LIG    1       53.840  64.095  35.772  0.00  0.00    +0.154 A 
ATOM     32  C   LIG    1       53.143  63.323  36.715  0.00  0.00    +0.038 A 
BRANCH  27  28
ATOM     28  C   LIG    1       55.316  64.383  35.820  0.00  0.00    +0.435 C 
ATOM     29  F   LIG    1       55.970  63.314  35.411  0.00  0.00    -0.164 F 
ATOM     30  F   LIG    1       55.760  64.782  36.997  0.00  0.00    -0.164 F 
ATOM     31  F   LIG    1       55.538  65.341  34.945  0.00  0.00    -0.164 F 
ENDBRANCH  27  28
ENDBRANCH   2   1
BRANCH   5   6
ATOM      6  C   LIG    1       48.873  60.335  40.514  0.00  0.00    +0.077 C 
ATOM      7  C   LIG    1       48.559  58.997  39.828  0.00  0.00    +0.044 C 
ATOM      8  C   LIG    1       48.000  58.112  40.942  0.00  0.00    +0.150 C 
ATOM     16  N   LIG    1       48.599  58.648  42.159  0.00  0.00    -0.209 NA
ATOM     17  C   LIG    1       49.297  59.905  41.928  0.00  0.00    +0.105 C 
BRANCH   8   9
ATOM      9  C   LIG    1       48.270  56.634  40.730  0.00  0.00    +0.242 C 
ATOM     10  O   LIG    1       49.352  56.160  41.071  0.00  0.00    -0.273 OA
ATOM     11  N   LIG    1       47.271  55.905  40.213  0.00  0.00    -0.268 N 
ATOM     12  C   LIG    1       46.007  56.541  39.820  0.00  0.00    +0.106 C 
ATOM     13  C   LIG    1       45.003  55.521  39.271  0.00  0.00    +0.081 C 
ATOM     14  S   LIG    1       45.968  54.139  38.881  0.00  0.00    -0.117 S 
ATOM     15  C   LIG    1       47.323  54.455  39.979  0.00  0.00    +0.152 C 
ENDBRANCH   8   9
ENDBRANCH   5   6
TORSDOF 4
ENDMDL
MODEL 3
REMARK VINA RESULT:    -7.698      1.928      3.120
REMARK INTER + INTRA:         -10.279
REMARK INTER:                 -10.406
REMARK INTRA:                   0.126
REMARK UNBOUND:                -0.781
REMARK  Name = ligand_1
REMARK                            x       y       z     vdW  Elec       q    Type
REMARK                         _______ _______ _______ _____ _____    ______ ____
ROOT
ATOM      2  N   LIG    1       50.498  61.652  38.815  0.00  0.00    -0.305 N 
ATOM      3  C   LIG    1       50.227  63.077  38.978  0.00  0.00    +0.108 C 
ATOM      4  C   LIG    1       51.363  63.879  38.333  0.00  0.00    +0.094 C 
ATOM      5  N   LIG    1       51.570  63.433  36.946  0.00  0.00    -0.270 NA
ATOM     18  C   LIG    1       51.824  62.008  36.784  0.00  0.00    +0.094 C 
ATOM     19  C   LIG    1       50.687  61.214  37.425  0.00  0.00    +0.108 C 
ENDROOT
BRANCH   2   1
ATOM      1  C   LIG    1       49.766  60.764  39.678  0.00  0.00    +0.051 A 
ATOM     20  C   LIG    1       48.373  60.888  39.891  0.00  0.00    +0.031 A 
ATOM     21  C   LIG    1       47.644  61.956  39.374  0.00  0.00    +0.003 A 
ATOM     22  C   LIG    1       46.275  62.056  39.602  0.00  0.00    +0.000 A 
ATOM     23  C   LIG    1       45.603  61.094  40.358  0.00  0.00    +0.002 A 
ATOM     24  C   LIG    1       46.315  60.019  40.880  0.00  0.00    +0.019 A 
ATOM     25  C   LIG    1       47.683  59.921  40.647  0.00  0.00    +0.082 A 
ATOM     26  N   LIG    1       48.340  58.877  41.180  0.00  0.00    -0.241 NA
ATOM     27  C   LIG    1       49.669  58.723  41.008  0.00  0.00    +0.154 A 
ATOM     32  C   LIG    1       50.403  59.647  40.247  0.00  0.00    +0.038 A 
BRANCH  27  28
ATOM     28  C   LIG    1       50.244  57.489  41.648  0.00  0.00    +0.435 C 
ATOM     29  F   LIG    1       50.884  56.794  40.728  0.00  0.00    -0.164 F 
ATOM     30  F   LIG    1       49.363  56.734  42.277  0.00  0.00    -0.164 F 
ATOM     31  F   LIG    1       51.136  57.903  42.522  0.00  0.00    -0.164 F 
ENDBRANCH  27  28
ENDBRANCH   2   1
BRANCH   5   6
ATOM      6  C   LIG    1       52.695  64.189  36.329  0.00  0.00    +0.077 C 
ATOM      7  C   LIG    1       54.023  63.993  37.077  0.00  0.00    +0.044 C 
ATOM      8  C   LIG    1       55.102  64.236  36.021  0.00  0.00    +0.150 C 
ATOM     16  N   LIG    1       54.450  63.898  34.760  0.00  0.00    -0.209 NA
ATOM     17  C   LIG    1       53.018  63.680  34.915  0.00  0.00    +0.105 C 
BRANCH   8   9
ATOM      9  C   LIG    1       56.380  63.459  36.275  0.00  0.00    +0.242 C 
ATOM     10  O   LIG    1       56.598  62.428  35.640  0.00  0.00    -0.273 OA
ATOM     11  N   LIG    1       57.238  63.979  37.163  0.00  0.00    -0.268 N 
ATOM     12  C   LIG    1       56.906  65.211  37.891  0.00  0.00    +0.106 C 
ATOM     13  C   LIG    1       58.033  65.633  38.839  0.00  0.00    +0.081 C 
ATOM     14  S   LIG    1       58.997  64.207  39.019  0.00  0.00    -0.117 S 
ATOM     15  C   LIG    1       58.544  63.401  37.506  0.00  0.00    +0.152 C 
ENDBRANCH   8   9
ENDBRANCH   5   6
TORSDOF 4
ENDMDL
MODEL 4
REMARK VINA RESULT:    -7.635      5.007      9.322
REMARK INTER + INTRA:         -10.201
REMARK INTER:                  -9.925
REMARK INTRA:                  -0.276
REMARK UNBOUND:                -0.781
REMARK  Name = ligand_1
REMARK                            x       y       z     vdW  Elec       q    Type
REMARK                         _______ _______ _______ _____ _____    ______ ____
ROOT
ATOM      2  N   LIG    1       50.976  62.391  37.193  0.00  0.00    -0.305 N 
ATOM      3  C   LIG    1       50.059  61.439  36.573  0.00  0.00    +0.108 C 
ATOM      4  C   LIG    1       49.605  60.424  37.627  0.00  0.00    +0.094 C 
ATOM      5  N   LIG    1       49.079  61.125  38.809  0.00  0.00    -0.270 NA
ATOM     18  C   LIG    1       49.989  62.087  39.416  0.00  0.00    +0.094 C 
ATOM     19  C   LIG    1       50.435  63.099  38.363  0.00  0.00    +0.108 C 
ENDROOT
BRANCH   2   1
ATOM      1  C   LIG    1       51.795  63.162  36.296  0.00  0.00    +0.051 A 
ATOM     20  C   LIG    1       51.254  63.894  35.213  0.00  0.00    +0.031 A 
ATOM     21  C   LIG    1       49.906  63.814  34.874  0.00  0.00    +0.003 A 
ATOM     22  C   LIG    1       49.400  64.541  33.800  0.00  0.00    +0.000 A 
ATOM     23  C   LIG    1       50.233  65.361  33.036  0.00  0.00    +0.002 A 
ATOM     24  C   LIG    1       51.582  65.454  33.362  0.00  0.00    +0.019 A 
ATOM     25  C   LIG    1       52.082  64.728  34.438  0.00  0.00    +0.082 A 
ATOM     26  N   LIG    1       53.394  64.832  34.713  0.00  0.00    -0.241 NA
ATOM     27  C   LIG    1       53.952  64.146  35.732  0.00  0.00    +0.154 A 
ATOM     32  C   LIG    1       53.169  63.315  36.549  0.00  0.00    +0.038 A 
BRANCH  27  28
ATOM     28  C   LIG    1       55.424  64.395  35.920  0.00  0.00    +0.435 C 
ATOM     29  F   LIG    1       56.079  63.282  35.656  0.00  0.00    -0.164 F 
ATOM     30  F   LIG    1       55.756  64.863  37.109  0.00  0.00    -0.164 F 
ATOM     31  F   LIG    1       55.771  65.283  35.013  0.00  0.00    -0.164 F 
ENDBRANCH  27  28
ENDBRANCH   2   1
BRANCH   5   6
ATOM      6  C   LIG    1       48.668  60.139  39.847  0.00  0.00    +0.077 C 
ATOM      7  C   LIG    1       49.453  58.821  39.759  0.00  0.00    +0.044 C 
ATOM      8  C   LIG    1       49.415  58.252  41.177  0.00  0.00    +0.150 C 
ATOM     16  N   LIG    1       49.264  59.426  42.030  0.00  0.00    -0.209 NA
ATOM     17  C   LIG    1       48.988  60.635  41.266  0.00  0.00    +0.105 C 
BRANCH   8   9
ATOM      9  C   LIG    1       50.625  57.402  41.518  0.00  0.00    +0.242 C 
ATOM     10  O   LIG    1       51.754  57.870  41.372  0.00  0.00    -0.273 OA
ATOM     11  N   LIG    1       50.387  56.180  42.012  0.00  0.00    -0.268 N 
ATOM     12  C   LIG    1       49.011  55.684  42.150  0.00  0.00    +0.106 C 
ATOM     13  C   LIG    1       48.971  54.275  42.751  0.00  0.00    +0.081 C 
ATOM     14  S   LIG    1       50.580  53.675  42.541  0.00  0.00    -0.117 S 
ATOM     15  C   LIG    1       51.423  55.232  42.445  0.00  0.00    +0.152 C 
ENDBRANCH   8   9
ENDBRANCH   5   6
TORSDOF 4
ENDMDL
MODEL 5
REMARK VINA RESULT:    -7.594      4.663      8.877
REMARK INTER + INTRA:         -10.150
REMARK INTER:                  -9.517
REMARK INTRA:                  -0.634
REMARK UNBOUND:                -0.781
REMARK  Name = ligand_1
REMARK                            x       y       z     vdW  Elec       q    Type
REMARK                         _______ _______ _______ _____ _____    ______ ____
ROOT
ATOM      2  N   LIG    1       50.711  63.051  36.561  0.00  0.00    -0.305 N 
ATOM      3  C   LIG    1       49.392  62.649  36.081  0.00  0.00    +0.108 C 
ATOM      4  C   LIG    1       48.903  61.455  36.909  0.00  0.00    +0.094 C 
ATOM      5  N   LIG    1       48.980  61.771  38.344  0.00  0.00    -0.270 NA
ATOM     18  C   LIG    1       50.294  62.188  38.817  0.00  0.00    +0.094 C 
ATOM     19  C   LIG    1       50.775  63.381  37.992  0.00  0.00    +0.108 C 
ENDROOT
BRANCH   2   1
ATOM      1  C   LIG    1       51.484  63.880  35.674  0.00  0.00    +0.051 A 
ATOM     20  C   LIG    1       52.896  63.829  35.624  0.00  0.00    +0.031 A 
ATOM     21  C   LIG    1       53.635  63.061  36.521  0.00  0.00    +0.003 A 
ATOM     22  C   LIG    1       55.025  63.033  36.453  0.00  0.00    +0.000 A 
ATOM     23  C   LIG    1       55.710  63.777  35.491  0.00  0.00    +0.002 A 
ATOM     24  C   LIG    1       54.987  64.549  34.586  0.00  0.00    +0.019 A 
ATOM     25  C   LIG    1       53.598  64.571  34.655  0.00  0.00    +0.082 A 
ATOM     26  N   LIG    1       52.936  65.340  33.774  0.00  0.00    -0.241 NA
ATOM     27  C   LIG    1       51.589  65.423  33.790  0.00  0.00    +0.154 A 
ATOM     32  C   LIG    1       50.839  64.689  34.722  0.00  0.00    +0.038 A 
BRANCH  27  28
ATOM     28  C   LIG    1       51.005  66.306  32.721  0.00  0.00    +0.435 C 
ATOM     29  F   LIG    1       51.237  67.564  33.037  0.00  0.00    -0.164 F 
ATOM     30  F   LIG    1       49.721  66.110  32.487  0.00  0.00    -0.164 F 
ATOM     31  F   LIG    1       51.672  66.046  31.617  0.00  0.00    -0.164 F 
ENDBRANCH  27  28
ENDBRANCH   2   1
BRANCH   5   6
ATOM      6  C   LIG    1       48.536  60.599  39.149  0.00  0.00    +0.077 C 
ATOM      7  C   LIG    1       49.546  59.442  39.122  0.00  0.00    +0.044 C 
ATOM      8  C   LIG    1       49.300  58.682  40.426  0.00  0.00    +0.150 C 
ATOM     16  N   LIG    1       48.756  59.690  41.329  0.00  0.00    -0.209 NA
ATOM     17  C   LIG    1       48.441  60.937  40.646  0.00  0.00    +0.105 C 
BRANCH   8   9
ATOM      9  C   LIG    1       50.539  57.988  40.961  0.00  0.00    +0.242 C 
ATOM     10  O   LIG    1       51.634  58.538  40.858  0.00  0.00    -0.273 OA
ATOM     11  N   LIG    1       50.356  56.808  41.570  0.00  0.00    -0.268 N 
ATOM     12  C   LIG    1       49.018  56.206  41.647  0.00  0.00    +0.106 C 
ATOM     13  C   LIG    1       49.037  54.871  42.400  0.00  0.00    +0.081 C 
ATOM     14  S   LIG    1       50.703  54.402  42.394  0.00  0.00    -0.117 S 
ATOM     15  C   LIG    1       51.421  56.011  42.193  0.00  0.00    +0.152 C 
ENDBRANCH   8   9
ENDBRANCH   5   6
TORSDOF 4
ENDMDL
MODEL 6
REMARK VINA RESULT:    -7.546      6.669      9.382
REMARK INTER + INTRA:         -10.091
REMARK INTER:                  -9.160
REMARK INTRA:                  -0.931
REMARK UNBOUND:                -0.781
REMARK  Name = ligand_1
REMARK                            x       y       z     vdW  Elec       q    Type
REMARK                         _______ _______ _______ _____ _____    ______ ____
ROOT
ATOM      2  N   LIG    1       52.408  63.262  35.603  0.00  0.00    -0.305 N 
ATOM      3  C   LIG    1       52.481  64.229  34.511  0.00  0.00    +0.108 C 
ATOM      4  C   LIG    1       51.205  64.127  33.668  0.00  0.00    +0.094 C 
ATOM      5  N   LIG    1       50.020  64.242  34.531  0.00  0.00    -0.270 NA
ATOM     18  C   LIG    1       49.957  63.287  35.629  0.00  0.00    +0.094 C 
ATOM     19  C   LIG    1       51.227  63.396  36.469  0.00  0.00    +0.108 C 
ENDROOT
BRANCH   2   1
ATOM      1  C   LIG    1       53.651  62.942  36.252  0.00  0.00    +0.051 A 
ATOM     20  C   LIG    1       54.096  61.611  36.427  0.00  0.00    +0.031 A 
ATOM     21  C   LIG    1       53.298  60.520  36.091  0.00  0.00    +0.003 A 
ATOM     22  C   LIG    1       53.759  59.220  36.279  0.00  0.00    +0.000 A 
ATOM     23  C   LIG    1       55.026  58.980  36.812  0.00  0.00    +0.002 A 
ATOM     24  C   LIG    1       55.838  60.058  37.151  0.00  0.00    +0.019 A 
ATOM     25  C   LIG    1       55.375  61.356  36.959  0.00  0.00    +0.082 A 
ATOM     26  N   LIG    1       56.181  62.371  37.313  0.00  0.00    -0.241 NA
ATOM     27  C   LIG    1       55.794  63.656  37.169  0.00  0.00    +0.154 A 
ATOM     32  C   LIG    1       54.538  63.967  36.626  0.00  0.00    +0.038 A 
BRANCH  27  28
ATOM     28  C   LIG    1       56.824  64.669  37.587  0.00  0.00    +0.435 C 
ATOM     29  F   LIG    1       56.687  65.746  36.840  0.00  0.00    -0.164 F 
ATOM     30  F   LIG    1       58.069  64.233  37.557  0.00  0.00    -0.164 F 
ATOM     31  F   LIG    1       56.532  65.008  38.825  0.00  0.00    -0.164 F 
ENDBRANCH  27  28
ENDBRANCH   2   1
BRANCH   5   6
ATOM      6  C   LIG    1       48.780  64.110  33.715  0.00  0.00    +0.077 C 
ATOM      7  C   LIG    1       49.035  63.457  32.348  0.00  0.00    +0.044 C 
ATOM      8  C   LIG    1       47.699  62.816  31.970  0.00  0.00    +0.150 C 
ATOM     16  N   LIG    1       47.055  62.549  33.251  0.00  0.00    -0.209 NA
ATOM     17  C   LIG    1       47.766  63.157  34.368  0.00  0.00    +0.105 C 
BRANCH   8   9
ATOM      9  C   LIG    1       47.847  61.587  31.093  0.00  0.00    +0.242 C 
ATOM     10  O   LIG    1       48.629  60.697  31.424  0.00  0.00    -0.273 OA
ATOM     11  N   LIG    1       47.064  61.521  30.006  0.00  0.00    -0.268 N 
ATOM     12  C   LIG    1       46.160  62.627  29.668  0.00  0.00    +0.106 C 
ATOM     13  C   LIG    1       45.350  62.333  28.401  0.00  0.00    +0.081 C 
ATOM     14  S   LIG    1       46.212  61.044  27.633  0.00  0.00    -0.117 S 
ATOM     15  C   LIG    1       47.028  60.393  29.065  0.00  0.00    +0.152 C 
ENDBRANCH   8   9
ENDBRANCH   5   6
TORSDOF 4
ENDMDL
MODEL 7
REMARK VINA RESULT:    -7.471      5.239      6.933
REMARK INTER + INTRA:         -10.000
REMARK INTER:                  -9.464
REMARK INTRA:                  -0.535
REMARK UNBOUND:                -0.781
REMARK  Name = ligand_1
REMARK                            x       y       z     vdW  Elec       q    Type
REMARK                         _______ _______ _______ _____ _____    ______ ____
ROOT
ATOM      2  N   LIG    1       53.552  57.963  38.720  0.00  0.00    -0.305 N 
ATOM      3  C   LIG    1       54.528  58.992  38.371  0.00  0.00    +0.108 C 
ATOM      4  C   LIG    1       54.067  59.704  37.095  0.00  0.00    +0.094 C 
ATOM      5  N   LIG    1       52.684  60.178  37.253  0.00  0.00    -0.270 NA
ATOM     18  C   LIG    1       51.715  59.153  37.618  0.00  0.00    +0.094 C 
ATOM     19  C   LIG    1       52.175  58.450  38.892  0.00  0.00    +0.108 C 
ENDROOT
BRANCH   2   1
ATOM      1  C   LIG    1       53.998  56.951  39.640  0.00  0.00    +0.051 A 
ATOM     20  C   LIG    1       54.811  55.865  39.240  0.00  0.00    +0.031 A 
ATOM     21  C   LIG    1       55.129  55.640  37.903  0.00  0.00    +0.003 A 
ATOM     22  C   LIG    1       55.927  54.561  37.535  0.00  0.00    +0.000 A 
ATOM     23  C   LIG    1       56.421  53.677  38.496  0.00  0.00    +0.002 A 
ATOM     24  C   LIG    1       56.115  53.887  39.836  0.00  0.00    +0.019 A 
ATOM     25  C   LIG    1       55.320  54.969  40.199  0.00  0.00    +0.082 A 
ATOM     26  N   LIG    1       55.033  55.131  41.502  0.00  0.00    -0.241 NA
ATOM     27  C   LIG    1       54.256  56.149  41.928  0.00  0.00    +0.154 A 
ATOM     32  C   LIG    1       53.739  57.083  41.016  0.00  0.00    +0.038 A 
BRANCH  27  28
ATOM     28  C   LIG    1       54.055  56.202  43.418  0.00  0.00    +0.435 C 
ATOM     29  F   LIG    1       54.930  57.042  43.933  0.00  0.00    -0.164 F 
ATOM     30  F   LIG    1       54.117  55.031  44.023  0.00  0.00    -0.164 F 
ATOM     31  F   LIG    1       52.857  56.709  43.614  0.00  0.00    -0.164 F 
ENDBRANCH  27  28
ENDBRANCH   2   1
BRANCH   5   6
ATOM      6  C   LIG    1       52.225  60.842  36.001  0.00  0.00    +0.077 C 
ATOM      7  C   LIG    1       51.572  62.209  36.257  0.00  0.00    +0.044 C 
ATOM      8  C   LIG    1       51.779  62.986  34.957  0.00  0.00    +0.150 C 
ATOM     16  N   LIG    1       52.978  62.395  34.373  0.00  0.00    -0.209 NA
ATOM     17  C   LIG    1       53.401  61.191  35.075  0.00  0.00    +0.105 C 
BRANCH   8   9
ATOM      9  C   LIG    1       51.877  64.487  35.161  0.00  0.00    +0.242 C 
ATOM     10  O   LIG    1       52.208  64.928  36.261  0.00  0.00    -0.273 OA
ATOM     11  N   LIG    1       51.636  65.260  34.093  0.00  0.00    -0.268 N 
ATOM     12  C   LIG    1       51.236  64.663  32.813  0.00  0.00    +0.106 C 
ATOM     13  C   LIG    1       51.030  65.726  31.728  0.00  0.00    +0.081 C 
ATOM     14  S   LIG    1       50.865  67.207  32.608  0.00  0.00    -0.117 S 
ATOM     15  C   LIG    1       51.728  66.726  34.081  0.00  0.00    +0.152 C 
ENDBRANCH   8   9
ENDBRANCH   5   6
TORSDOF 4
ENDMDL
MODEL 8
REMARK VINA RESULT:    -7.425      5.666      7.369
REMARK INTER + INTRA:          -9.942
REMARK INTER:                  -9.850
REMARK INTRA:                  -0.092
REMARK UNBOUND:                -0.781
REMARK  Name = ligand_1
REMARK                            x       y       z     vdW  Elec       q    Type
REMARK                         _______ _______ _______ _____ _____    ______ ____
ROOT
ATOM      2  N   LIG    1       54.651  58.342  38.302  0.00  0.00    -0.305 N 
ATOM      3  C   LIG    1       53.381  58.392  37.585  0.00  0.00    +0.108 C 
ATOM      4  C   LIG    1       53.120  59.832  37.131  0.00  0.00    +0.094 C 
ATOM      5  N   LIG    1       54.282  60.345  36.388  0.00  0.00    -0.270 NA
ATOM     18  C   LIG    1       55.551  60.278  37.099  0.00  0.00    +0.094 C 
ATOM     19  C   LIG    1       55.809  58.841  37.545  0.00  0.00    +0.108 C 
ENDROOT
BRANCH   2   1
ATOM      1  C   LIG    1       54.871  57.182  39.125  0.00  0.00    +0.051 A 
ATOM     20  C   LIG    1       55.570  56.043  38.663  0.00  0.00    +0.031 A 
ATOM     21  C   LIG    1       55.985  55.924  37.339  0.00  0.00    +0.003 A 
ATOM     22  C   LIG    1       56.668  54.790  36.909  0.00  0.00    +0.000 A 
ATOM     23  C   LIG    1       56.948  53.746  37.793  0.00  0.00    +0.002 A 
ATOM     24  C   LIG    1       56.543  53.849  39.119  0.00  0.00    +0.019 A 
ATOM     25  C   LIG    1       55.863  54.986  39.545  0.00  0.00    +0.082 A 
ATOM     26  N   LIG    1       55.475  55.043  40.831  0.00  0.00    -0.241 NA
ATOM     27  C   LIG    1       54.799  56.107  41.312  0.00  0.00    +0.154 A 
ATOM     32  C   LIG    1       54.498  57.198  40.481  0.00  0.00    +0.038 A 
BRANCH  27  28
ATOM     28  C   LIG    1       54.463  56.024  42.776  0.00  0.00    +0.435 C 
ATOM     29  F   LIG    1       55.111  55.005  43.302  0.00  0.00    -0.164 F 
ATOM     30  F   LIG    1       53.172  55.946  43.040  0.00  0.00    -0.164 F 
ATOM     31  F   LIG    1       54.935  57.121  43.330  0.00  0.00    -0.164 F 
ENDBRANCH  27  28
ENDBRANCH   2   1
BRANCH   5   6
ATOM      6  C   LIG    1       54.042  61.756  35.975  0.00  0.00    +0.077 C 
ATOM      7  C   LIG    1       53.368  61.866  34.598  0.00  0.00    +0.044 C 
ATOM      8  C   LIG    1       52.628  63.203  34.636  0.00  0.00    +0.150 C 
ATOM     16  N   LIG    1       52.354  63.421  36.052  0.00  0.00    -0.209 NA
ATOM     17  C   LIG    1       53.041  62.461  36.905  0.00  0.00    +0.105 C 
BRANCH   8   9
ATOM      9  C   LIG    1       51.387  63.229  33.763  0.00  0.00    +0.242 C 
ATOM     10  O   LIG    1       50.760  62.188  33.569  0.00  0.00    -0.273 OA
ATOM     11  N   LIG    1       51.011  64.422  33.281  0.00  0.00    -0.268 N 
ATOM     12  C   LIG    1       51.814  65.623  33.546  0.00  0.00    +0.106 C 
ATOM     13  C   LIG    1       51.192  66.874  32.917  0.00  0.00    +0.081 C 
ATOM     14  S   LIG    1       50.083  66.255  31.741  0.00  0.00    -0.117 S 
ATOM     15  C   LIG    1       49.815  64.656  32.460  0.00  0.00    +0.152 C 
ENDBRANCH   8   9
ENDBRANCH   5   6
TORSDOF 4
ENDMDL
MODEL 9
REMARK VINA RESULT:    -7.308      6.198      9.730
REMARK INTER + INTRA:          -9.798
REMARK INTER:                  -9.647
REMARK INTRA:                  -0.152
REMARK UNBOUND:                -0.781
REMARK  Name = ligand_1
REMARK                            x       y       z     vdW  Elec       q    Type
REMARK                         _______ _______ _______ _____ _____    ______ ____
ROOT
ATOM      2  N   LIG    1       55.432  60.589  36.886  0.00  0.00    -0.305 N 
ATOM      3  C   LIG    1       56.322  59.657  36.200  0.00  0.00    +0.108 C 
ATOM      4  C   LIG    1       56.155  58.263  36.813  0.00  0.00    +0.094 C 
ATOM      5  N   LIG    1       54.734  57.883  36.823  0.00  0.00    -0.270 NA
ATOM     18  C   LIG    1       53.845  58.822  37.494  0.00  0.00    +0.094 C 
ATOM     19  C   LIG    1       54.011  60.208  36.876  0.00  0.00    +0.108 C 
ENDROOT
BRANCH   2   1
ATOM      1  C   LIG    1       55.726  61.987  36.721  0.00  0.00    +0.051 A 
ATOM     20  C   LIG    1       55.050  62.800  35.782  0.00  0.00    +0.031 A 
ATOM     21  C   LIG    1       54.140  62.268  34.871  0.00  0.00    +0.003 A 
ATOM     22  C   LIG    1       53.492  63.090  33.954  0.00  0.00    +0.000 A 
ATOM     23  C   LIG    1       53.742  64.463  33.922  0.00  0.00    +0.002 A 
ATOM     24  C   LIG    1       54.646  65.012  34.826  0.00  0.00    +0.019 A 
ATOM     25  C   LIG    1       55.289  64.187  35.743  0.00  0.00    +0.082 A 
ATOM     26  N   LIG    1       56.167  64.751  36.590  0.00  0.00    -0.241 NA
ATOM     27  C   LIG    1       56.839  64.012  37.497  0.00  0.00    +0.154 A 
ATOM     32  C   LIG    1       56.624  62.628  37.592  0.00  0.00    +0.038 A 
BRANCH  27  28
ATOM     28  C   LIG    1       57.762  64.801  38.386  0.00  0.00    +0.435 C 
ATOM     29  F   LIG    1       57.531  64.467  39.639  0.00  0.00    -0.164 F 
ATOM     30  F   LIG    1       57.691  66.110  38.229  0.00  0.00    -0.164 F 
ATOM     31  F   LIG    1       58.984  64.413  38.092  0.00  0.00    -0.164 F 
ENDBRANCH  27  28
ENDBRANCH   2   1
BRANCH   5   6
ATOM      6  C   LIG    1       54.569  56.541  37.450  0.00  0.00    +0.077 C 
ATOM      7  C   LIG    1       54.613  56.593  38.984  0.00  0.00    +0.044 C 
ATOM      8  C   LIG    1       53.805  55.376  39.436  0.00  0.00    +0.150 C 
ATOM     16  N   LIG    1       52.877  55.134  38.337  0.00  0.00    -0.209 NA
ATOM     17  C   LIG    1       53.180  55.945  37.166  0.00  0.00    +0.105 C 
BRANCH   8   9
ATOM      9  C   LIG    1       53.125  55.569  40.778  0.00  0.00    +0.242 C 
ATOM     10  O   LIG    1       52.067  56.196  40.837  0.00  0.00    -0.273 OA
ATOM     11  N   LIG    1       53.705  54.993  41.840  0.00  0.00    -0.268 N 
ATOM     12  C   LIG    1       54.974  54.266  41.696  0.00  0.00    +0.106 C 
ATOM     13  C   LIG    1       55.445  53.675  43.029  0.00  0.00    +0.081 C 
ATOM     14  S   LIG    1       54.543  54.543  44.224  0.00  0.00    -0.117 S 
ATOM     15  C   LIG    1       53.172  55.026  43.209  0.00  0.00    +0.152 C 
ENDBRANCH   8   9
ENDBRANCH   5   6
TORSDOF 4
ENDMDL
