MODEL 1
REMARK VINA RESULT:    -8.485      0.000      0.000
REMARK INTER + INTRA:         -11.152
REMARK INTER:                 -10.469
REMARK INTRA:                  -0.684
REMARK UNBOUND:                -0.684
REMARK  Name = ligand_1
REMARK                            x       y       z     vdW  Elec       q    Type
REMARK                         _______ _______ _______ _____ _____    ______ ____
ROOT
ATOM      2  N   LIG    1       50.250  61.930  38.261  0.00  0.00    -0.305 N 
ATOM      3  C   LIG    1       50.433  63.286  38.770  0.00  0.00    +0.108 C 
ATOM      4  C   LIG    1       51.668  63.905  38.107  0.00  0.00    +0.094 C 
ATOM      5  N   LIG    1       51.566  63.792  36.644  0.00  0.00    -0.270 NA
ATOM     18  C   LIG    1       51.366  62.440  36.139  0.00  0.00    +0.094 C 
ATOM     19  C   LIG    1       50.132  61.829  36.798  0.00  0.00    +0.108 C 
ENDROOT
BRANCH   2   1
ATOM      1  C   LIG    1       49.397  61.070  39.037  0.00  0.00    +0.051 A 
ATOM     20  C   LIG    1       49.897  59.983  39.791  0.00  0.00    +0.031 A 
ATOM     21  C   LIG    1       51.236  59.602  39.731  0.00  0.00    +0.003 A 
ATOM     22  C   LIG    1       51.701  58.526  40.480  0.00  0.00    +0.000 A 
ATOM     23  C   LIG    1       50.839  57.800  41.303  0.00  0.00    +0.002 A 
ATOM     24  C   LIG    1       49.499  58.168  41.377  0.00  0.00    +0.019 A 
ATOM     25  C   LIG    1       49.038  59.247  40.629  0.00  0.00    +0.082 A 
ATOM     26  N   LIG    1       47.735  59.562  40.715  0.00  0.00    -0.241 NA
ATOM     27  C   LIG    1       47.214  60.587  40.008  0.00  0.00    +0.154 A 
ATOM     32  C   LIG    1       48.029  61.366  39.172  0.00  0.00    +0.038 A 
BRANCH  27  28
ATOM     28  C   LIG    1       45.746  60.823  40.238  0.00  0.00    +0.435 C 
ATOM     29  F   LIG    1       45.350  60.074  41.248  0.00  0.00    -0.164 F 
ATOM     30  F   LIG    1       44.984  60.623  39.180  0.00  0.00    -0.164 F 
ATOM     31  F   LIG    1       45.624  62.080  40.607  0.00  0.00    -0.164 F 
ENDBRANCH  27  28
ENDBRANCH   2   1
BRANCH   5   6
ATOM      6  C   LIG    1       52.782  64.364  36.001  0.00  0.00    +0.077 C 
ATOM      7  C   LIG    1       54.049  64.170  36.848  0.00  0.00    +0.044 C 
ATOM      8  C   LIG    1       55.196  64.179  35.836  0.00  0.00    +0.150 C 
ATOM     16  N   LIG    1       54.581  63.722  34.595  0.00  0.00    -0.209 NA
ATOM     17  C   LIG    1       53.130  63.641  34.690  0.00  0.00    +0.105 C 
BRANCH   8   9
ATOM      9  C   LIG    1       56.388  63.346  36.270  0.00  0.00    +0.242 C 
ATOM     10  O   LIG    1       56.572  62.241  35.762  0.00  0.00    -0.273 OA
ATOM     11  N   LIG    1       57.216  63.897  37.168  0.00  0.00    -0.268 N 
ATOM     12  C   LIG    1       56.928  65.219  37.739  0.00  0.00    +0.106 C 
ATOM     13  C   LIG    1       58.012  65.661  38.728  0.00  0.00    +0.081 C 
ATOM     14  S   LIG    1       58.847  64.199  39.128  0.00  0.00    -0.117 S 
ATOM     15  C   LIG    1       58.445  63.269  37.672  0.00  0.00    +0.152 C 
ENDBRANCH   8   9
ENDBRANCH   5   6
TORSDOF 4
ENDMDL
MODEL 2
REMARK VINA RESULT:    -8.184      5.444      9.855
REMARK INTER + INTRA:         -10.781
REMARK INTER:                  -9.933
REMARK INTRA:                  -0.849
REMARK UNBOUND:                -0.684
REMARK  Name = ligand_1
REMARK                            x       y       z     vdW  Elec       q    Type
REMARK                         _______ _______ _______ _____ _____    ______ ____
ROOT
ATOM      2  N   LIG    1       51.174  62.565  37.502  0.00  0.00    -0.305 N 
ATOM      3  C   LIG    1       50.711  63.326  38.658  0.00  0.00    +0.108 C 
ATOM      4  C   LIG    1       49.559  62.568  39.327  0.00  0.00    +0.094 C 
ATOM      5  N   LIG    1       49.964  61.182  39.609  0.00  0.00    -0.270 NA
ATOM     18  C   LIG    1       50.442  60.429  38.457  0.00  0.00    +0.094 C 
ATOM     19  C   LIG    1       51.592  61.186  37.797  0.00  0.00    +0.108 C 
ENDROOT
BRANCH   2   1
ATOM      1  C   LIG    1       51.965  63.287  36.542  0.00  0.00    +0.051 A 
ATOM     20  C   LIG    1       51.395  63.940  35.425  0.00  0.00    +0.031 A 
ATOM     21  C   LIG    1       50.041  63.822  35.118  0.00  0.00    +0.003 A 
ATOM     22  C   LIG    1       49.506  64.472  34.010  0.00  0.00    +0.000 A 
ATOM     23  C   LIG    1       50.312  65.252  33.179  0.00  0.00    +0.002 A 
ATOM     24  C   LIG    1       51.666  65.383  33.472  0.00  0.00    +0.019 A 
ATOM     25  C   LIG    1       52.196  64.734  34.582  0.00  0.00    +0.082 A 
ATOM     26  N   LIG    1       53.511  64.871  34.824  0.00  0.00    -0.241 NA
ATOM     27  C   LIG    1       54.098  64.260  35.874  0.00  0.00    +0.154 A 
ATOM     32  C   LIG    1       53.342  63.473  36.757  0.00  0.00    +0.038 A 
BRANCH  27  28
ATOM     28  C   LIG    1       55.570  64.539  36.017  0.00  0.00    +0.435 C 
ATOM     29  F   LIG    1       56.243  63.545  35.474  0.00  0.00    -0.164 F 
ATOM     30  F   LIG    1       55.970  64.756  37.256  0.00  0.00    -0.164 F 
ATOM     31  F   LIG    1       55.815  65.619  35.306  0.00  0.00    -0.164 F 
ENDBRANCH  27  28
ENDBRANCH   2   1
BRANCH   5   6
ATOM      6  C   LIG    1       48.833  60.436  40.228  0.00  0.00    +0.077 C 
ATOM      7  C   LIG    1       48.573  59.081  39.552  0.00  0.00    +0.044 C 
ATOM      8  C   LIG    1       47.921  58.225  40.638  0.00  0.00    +0.150 C 
ATOM     16  N   LIG    1       48.419  58.791  41.887  0.00  0.00    -0.209 NA
ATOM     17  C   LIG    1       49.137  60.042  41.683  0.00  0.00    +0.105 C 
BRANCH   8   9
ATOM      9  C   LIG    1       48.202  56.742  40.485  0.00  0.00    +0.242 C 
ATOM     10  O   LIG    1       49.302  56.297  40.813  0.00  0.00    -0.273 OA
ATOM     11  N   LIG    1       47.197  55.978  40.036  0.00  0.00    -0.268 N 
ATOM     12  C   LIG    1       45.913  56.581  39.655  0.00  0.00    +0.106 C 
ATOM     13  C   LIG    1       44.905  55.525  39.187  0.00  0.00    +0.081 C 
ATOM     14  S   LIG    1       45.875  54.138  38.830  0.00  0.00    -0.117 S 
ATOM     15  C   LIG    1       47.260  54.520  39.868  0.00  0.00    +0.152 C 
ENDBRANCH   8   9
ENDBRANCH   5   6
TORSDOF 4
ENDMDL
MODEL 3
REMARK VINA RESULT:    -7.706      4.962      9.282
REMARK INTER + INTRA:         -10.192
REMARK INTER:                  -9.894
REMARK INTRA:                  -0.298
REMARK UNBOUND:                -0.684
REMARK  Name = ligand_1
REMARK                            x       y       z     vdW  Elec       q    Type
REMARK                         _______ _______ _______ _____ _____    ______ ____
ROOT
ATOM      2  N   LIG    1       50.962  62.349  37.131  0.00  0.00    -0.305 N 
ATOM      3  C   LIG    1       50.083  61.376  36.490  0.00  0.00    +0.108 C 
ATOM      4  C   LIG    1       49.613  60.361  37.537  0.00  0.00    +0.094 C 
ATOM      5  N   LIG    1       49.035  61.061  38.695  0.00  0.00    -0.270 NA
ATOM     18  C   LIG    1       49.908  62.044  39.323  0.00  0.00    +0.094 C 
ATOM     19  C   LIG    1       50.370  63.056  38.277  0.00  0.00    +0.108 C 
ENDROOT
BRANCH   2   1
ATOM      1  C   LIG    1       51.796  63.128  36.254  0.00  0.00    +0.051 A 
ATOM     20  C   LIG    1       51.272  63.877  35.175  0.00  0.00    +0.031 A 
ATOM     21  C   LIG    1       49.928  63.810  34.819  0.00  0.00    +0.003 A 
ATOM     22  C   LIG    1       49.439  64.555  33.750  0.00  0.00    +0.000 A 
ATOM     23  C   LIG    1       50.285  65.381  33.007  0.00  0.00    +0.002 A 
ATOM     24  C   LIG    1       51.631  65.462  33.350  0.00  0.00    +0.019 A 
ATOM     25  C   LIG    1       52.114  64.718  34.422  0.00  0.00    +0.082 A 
ATOM     26  N   LIG    1       53.423  64.810  34.714  0.00  0.00    -0.241 NA
ATOM     27  C   LIG    1       53.965  64.108  35.730  0.00  0.00    +0.154 A 
ATOM     32  C   LIG    1       53.168  63.270  36.526  0.00  0.00    +0.038 A 
BRANCH  27  28
ATOM     28  C   LIG    1       55.436  64.345  35.940  0.00  0.00    +0.435 C 
ATOM     29  F   LIG    1       55.780  65.452  35.311  0.00  0.00    -0.164 F 
ATOM     30  F   LIG    1       56.212  63.341  35.578  0.00  0.00    -0.164 F 
ATOM     31  F   LIG    1       55.600  64.555  37.228  0.00  0.00    -0.164 F 
ENDBRANCH  27  28
ENDBRANCH   2   1
BRANCH   5   6
ATOM      6  C   LIG    1       48.609  60.076  39.727  0.00  0.00    +0.077 C 
ATOM      7  C   LIG    1       49.414  58.769  39.670  0.00  0.00    +0.044 C 
ATOM      8  C   LIG    1       49.344  58.208  41.090  0.00  0.00    +0.150 C 
ATOM     16  N   LIG    1       49.151  59.385  41.931  0.00  0.00    -0.209 NA
ATOM     17  C   LIG    1       48.881  60.586  41.151  0.00  0.00    +0.105 C 
BRANCH   8   9
ATOM      9  C   LIG    1       50.555  57.378  41.472  0.00  0.00    +0.242 C 
ATOM     10  O   LIG    1       51.682  57.852  41.335  0.00  0.00    -0.273 OA
ATOM     11  N   LIG    1       50.319  56.165  41.991  0.00  0.00    -0.268 N 
ATOM     12  C   LIG    1       48.945  55.660  42.116  0.00  0.00    +0.106 C 
ATOM     13  C   LIG    1       48.907  54.265  42.749  0.00  0.00    +0.081 C 
ATOM     14  S   LIG    1       50.525  53.675  42.580  0.00  0.00    -0.117 S 
ATOM     15  C   LIG    1       51.356  55.237  42.463  0.00  0.00    +0.152 C 
ENDBRANCH   8   9
ENDBRANCH   5   6
TORSDOF 4
ENDMDL
MODEL 4
REMARK VINA RESULT:    -7.706      4.583      8.815
REMARK INTER + INTRA:         -10.192
REMARK INTER:                  -9.547
REMARK INTRA:                  -0.645
REMARK UNBOUND:                -0.684
REMARK  Name = ligand_1
REMARK                            x       y       z     vdW  Elec       q    Type
REMARK                         _______ _______ _______ _____ _____    ______ ____
ROOT
ATOM      2  N   LIG    1       50.727  63.044  36.602  0.00  0.00    -0.305 N 
ATOM      3  C   LIG    1       49.409  62.641  36.120  0.00  0.00    +0.108 C 
ATOM      4  C   LIG    1       48.917  61.451  36.951  0.00  0.00    +0.094 C 
ATOM      5  N   LIG    1       48.990  61.773  38.385  0.00  0.00    -0.270 NA
ATOM     18  C   LIG    1       50.303  62.191  38.860  0.00  0.00    +0.094 C 
ATOM     19  C   LIG    1       50.787  63.379  38.032  0.00  0.00    +0.108 C 
ENDROOT
BRANCH   2   1
ATOM      1  C   LIG    1       51.503  63.868  35.713  0.00  0.00    +0.051 A 
ATOM     20  C   LIG    1       52.915  63.801  35.653  0.00  0.00    +0.031 A 
ATOM     21  C   LIG    1       53.651  63.019  36.540  0.00  0.00    +0.003 A 
ATOM     22  C   LIG    1       55.040  62.975  36.463  0.00  0.00    +0.000 A 
ATOM     23  C   LIG    1       55.726  63.716  35.499  0.00  0.00    +0.002 A 
ATOM     24  C   LIG    1       55.007  64.501  34.604  0.00  0.00    +0.019 A 
ATOM     25  C   LIG    1       53.618  64.539  34.683  0.00  0.00    +0.082 A 
ATOM     26  N   LIG    1       52.959  65.321  33.811  0.00  0.00    -0.241 NA
ATOM     27  C   LIG    1       51.614  65.420  33.837  0.00  0.00    +0.154 A 
ATOM     32  C   LIG    1       50.861  64.690  34.771  0.00  0.00    +0.038 A 
BRANCH  27  28
ATOM     28  C   LIG    1       51.032  66.315  32.777  0.00  0.00    +0.435 C 
ATOM     29  F   LIG    1       51.672  66.101  31.644  0.00  0.00    -0.164 F 
ATOM     30  F   LIG    1       51.033  67.599  33.080  0.00  0.00    -0.164 F 
ATOM     31  F   LIG    1       49.786  65.929  32.606  0.00  0.00    -0.164 F 
ENDBRANCH  27  28
ENDBRANCH   2   1
BRANCH   5   6
ATOM      6  C   LIG    1       48.543  60.605  39.194  0.00  0.00    +0.077 C 
ATOM      7  C   LIG    1       49.546  59.442  39.165  0.00  0.00    +0.044 C 
ATOM      8  C   LIG    1       49.301  58.686  40.471  0.00  0.00    +0.150 C 
ATOM     16  N   LIG    1       48.765  59.698  41.375  0.00  0.00    -0.209 NA
ATOM     17  C   LIG    1       48.455  60.946  40.691  0.00  0.00    +0.105 C 
BRANCH   8   9
ATOM      9  C   LIG    1       50.537  57.986  41.003  0.00  0.00    +0.242 C 
ATOM     10  O   LIG    1       51.635  58.533  40.901  0.00  0.00    -0.273 OA
ATOM     11  N   LIG    1       50.351  56.804  41.608  0.00  0.00    -0.268 N 
ATOM     12  C   LIG    1       49.011  56.207  41.685  0.00  0.00    +0.106 C 
ATOM     13  C   LIG    1       49.027  54.869  42.433  0.00  0.00    +0.081 C 
ATOM     14  S   LIG    1       50.691  54.394  42.424  0.00  0.00    -0.117 S 
ATOM     15  C   LIG    1       51.414  56.001  42.227  0.00  0.00    +0.152 C 
ENDBRANCH   8   9
ENDBRANCH   5   6
TORSDOF 4
ENDMDL
MODEL 5
REMARK VINA RESULT:    -7.690      6.577      9.315
REMARK INTER + INTRA:         -10.172
REMARK INTER:                  -9.220
REMARK INTRA:                  -0.952
REMARK UNBOUND:                -0.684
REMARK  Name = ligand_1
REMARK                            x       y       z     vdW  Elec       q    Type
REMARK                         _______ _______ _______ _____ _____    ______ ____
ROOT
ATOM      2  N   LIG    1       52.489  63.306  35.526  0.00  0.00    -0.305 N 
ATOM      3  C   LIG    1       52.596  64.236  34.405  0.00  0.00    +0.108 C 
ATOM      4  C   LIG    1       51.326  64.140  33.554  0.00  0.00    +0.094 C 
ATOM      5  N   LIG    1       50.136  64.313  34.402  0.00  0.00    -0.270 NA
ATOM     18  C   LIG    1       50.040  63.395  35.529  0.00  0.00    +0.094 C 
ATOM     19  C   LIG    1       51.306  63.498  36.377  0.00  0.00    +0.108 C 
ENDROOT
BRANCH   2   1
ATOM      1  C   LIG    1       53.718  62.975  36.196  0.00  0.00    +0.051 A 
ATOM     20  C   LIG    1       54.160  61.641  36.357  0.00  0.00    +0.031 A 
ATOM     21  C   LIG    1       53.370  60.556  35.985  0.00  0.00    +0.003 A 
ATOM     22  C   LIG    1       53.827  59.253  36.159  0.00  0.00    +0.000 A 
ATOM     23  C   LIG    1       55.083  59.004  36.715  0.00  0.00    +0.002 A 
ATOM     24  C   LIG    1       55.886  60.076  37.091  0.00  0.00    +0.019 A 
ATOM     25  C   LIG    1       55.427  61.376  36.912  0.00  0.00    +0.082 A 
ATOM     26  N   LIG    1       56.225  62.385  37.301  0.00  0.00    -0.241 NA
ATOM     27  C   LIG    1       55.841  63.672  37.172  0.00  0.00    +0.154 A 
ATOM     32  C   LIG    1       54.596  63.993  36.607  0.00  0.00    +0.038 A 
BRANCH  27  28
ATOM     28  C   LIG    1       56.861  64.679  37.631  0.00  0.00    +0.435 C 
ATOM     29  F   LIG    1       56.727  65.775  36.912  0.00  0.00    -0.164 F 
ATOM     30  F   LIG    1       58.108  64.249  37.603  0.00  0.00    -0.164 F 
ATOM     31  F   LIG    1       56.553  64.981  38.874  0.00  0.00    -0.164 F 
ENDBRANCH  27  28
ENDBRANCH   2   1
BRANCH   5   6
ATOM      6  C   LIG    1       48.900  64.187  33.580  0.00  0.00    +0.077 C 
ATOM      7  C   LIG    1       49.142  63.453  32.252  0.00  0.00    +0.044 C 
ATOM      8  C   LIG    1       47.785  62.848  31.892  0.00  0.00    +0.150 C 
ATOM     16  N   LIG    1       47.118  62.674  33.177  0.00  0.00    -0.209 NA
ATOM     17  C   LIG    1       47.842  63.311  34.269  0.00  0.00    +0.105 C 
BRANCH   8   9
ATOM      9  C   LIG    1       47.892  61.569  31.082  0.00  0.00    +0.242 C 
ATOM     10  O   LIG    1       48.627  60.663  31.473  0.00  0.00    -0.273 OA
ATOM     11  N   LIG    1       47.126  61.481  29.986  0.00  0.00    -0.268 N 
ATOM     12  C   LIG    1       46.279  62.607  29.573  0.00  0.00    +0.106 C 
ATOM     13  C   LIG    1       45.478  62.283  28.307  0.00  0.00    +0.081 C 
ATOM     14  S   LIG    1       46.293  60.919  27.623  0.00  0.00    -0.117 S 
ATOM     15  C   LIG    1       47.055  60.308  29.103  0.00  0.00    +0.152 C 
ENDBRANCH   8   9
ENDBRANCH   5   6
TORSDOF 4
ENDMDL
MODEL 6
REMARK VINA RESULT:    -7.566      5.275      7.037
REMARK INTER + INTRA:         -10.018
REMARK INTER:                  -9.430
REMARK INTRA:                  -0.588
REMARK UNBOUND:                -0.684
REMARK  Name = ligand_1
REMARK                            x       y       z     vdW  Elec       q    Type
REMARK                         _______ _______ _______ _____ _____    ______ ____
ROOT
ATOM      2  N   LIG    1       53.548  57.928  38.724  0.00  0.00    -0.305 N 
ATOM      3  C   LIG    1       54.473  59.030  38.478  0.00  0.00    +0.108 C 
ATOM      4  C   LIG    1       54.059  59.752  37.192  0.00  0.00    +0.094 C 
ATOM      5  N   LIG    1       52.638  60.129  37.260  0.00  0.00    -0.270 NA
ATOM     18  C   LIG    1       51.718  59.031  37.523  0.00  0.00    +0.094 C 
ATOM     19  C   LIG    1       52.132  58.317  38.807  0.00  0.00    +0.108 C 
ENDROOT
BRANCH   2   1
ATOM      1  C   LIG    1       53.994  56.917  39.646  0.00  0.00    +0.051 A 
ATOM     20  C   LIG    1       54.823  55.842  39.251  0.00  0.00    +0.031 A 
ATOM     21  C   LIG    1       55.160  55.626  37.917  0.00  0.00    +0.003 A 
ATOM     22  C   LIG    1       55.974  54.557  37.555  0.00  0.00    +0.000 A 
ATOM     23  C   LIG    1       56.467  53.675  38.518  0.00  0.00    +0.002 A 
ATOM     24  C   LIG    1       56.142  53.877  39.856  0.00  0.00    +0.019 A 
ATOM     25  C   LIG    1       55.331  54.949  40.213  0.00  0.00    +0.082 A 
ATOM     26  N   LIG    1       55.026  55.102  41.513  0.00  0.00    -0.241 NA
ATOM     27  C   LIG    1       54.233  56.110  41.933  0.00  0.00    +0.154 A 
ATOM     32  C   LIG    1       53.716  57.041  41.018  0.00  0.00    +0.038 A 
BRANCH  27  28
ATOM     28  C   LIG    1       54.013  56.154  43.421  0.00  0.00    +0.435 C 
ATOM     29  F   LIG    1       54.915  56.951  43.958  0.00  0.00    -0.164 F 
ATOM     30  F   LIG    1       54.018  54.975  44.013  0.00  0.00    -0.164 F 
ATOM     31  F   LIG    1       52.834  56.708  43.607  0.00  0.00    -0.164 F 
ENDBRANCH  27  28
ENDBRANCH   2   1
BRANCH   5   6
ATOM      6  C   LIG    1       52.227  60.802  35.996  0.00  0.00    +0.077 C 
ATOM      7  C   LIG    1       51.541  62.155  36.239  0.00  0.00    +0.044 C 
ATOM      8  C   LIG    1       51.795  62.954  34.961  0.00  0.00    +0.150 C 
ATOM     16  N   LIG    1       53.029  62.389  34.425  0.00  0.00    -0.209 NA
ATOM     17  C   LIG    1       53.439  61.182  35.131  0.00  0.00    +0.105 C 
BRANCH   8   9
ATOM      9  C   LIG    1       51.859  64.452  35.189  0.00  0.00    +0.242 C 
ATOM     10  O   LIG    1       52.139  64.884  36.306  0.00  0.00    -0.273 OA
ATOM     11  N   LIG    1       51.646  65.236  34.123  0.00  0.00    -0.268 N 
ATOM     12  C   LIG    1       51.306  64.650  32.819  0.00  0.00    +0.106 C 
ATOM     13  C   LIG    1       51.123  65.725  31.742  0.00  0.00    +0.081 C 
ATOM     14  S   LIG    1       50.899  67.190  32.635  0.00  0.00    -0.117 S 
ATOM     15  C   LIG    1       51.712  66.704  34.133  0.00  0.00    +0.152 C 
ENDBRANCH   8   9
ENDBRANCH   5   6
TORSDOF 4
ENDMDL
MODEL 7
REMARK VINA RESULT:    -7.428      6.570      9.313
REMARK INTER + INTRA:          -9.849
REMARK INTER:                  -8.978
REMARK INTRA:                  -0.871
REMARK UNBOUND:                -0.684
REMARK  Name = ligand_1
REMARK                            x       y       z     vdW  Elec       q    Type
REMARK                         _______ _______ _______ _____ _____    ______ ____
ROOT
ATOM      2  N   LIG    1       53.094  63.490  34.858  0.00  0.00    -0.305 N 
ATOM      3  C   LIG    1       53.529  63.494  33.464  0.00  0.00    +0.108 C 
ATOM      4  C   LIG    1       52.295  63.472  32.556  0.00  0.00    +0.094 C 
ATOM      5  N   LIG    1       51.375  64.558  32.929  0.00  0.00    -0.270 NA
ATOM     18  C   LIG    1       50.955  64.562  34.324  0.00  0.00    +0.094 C 
ATOM     19  C   LIG    1       52.188  64.589  35.225  0.00  0.00    +0.108 C 
ENDROOT
BRANCH   2   1
ATOM      1  C   LIG    1       54.085  63.119  35.832  0.00  0.00    +0.051 A 
ATOM     20  C   LIG    1       54.320  61.775  36.204  0.00  0.00    +0.031 A 
ATOM     21  C   LIG    1       53.519  60.735  35.739  0.00  0.00    +0.003 A 
ATOM     22  C   LIG    1       53.769  59.421  36.124  0.00  0.00    +0.000 A 
ATOM     23  C   LIG    1       54.822  59.116  36.988  0.00  0.00    +0.002 A 
ATOM     24  C   LIG    1       55.633  60.143  37.460  0.00  0.00    +0.019 A 
ATOM     25  C   LIG    1       55.382  61.454  37.070  0.00  0.00    +0.082 A 
ATOM     26  N   LIG    1       56.178  62.421  37.559  0.00  0.00    -0.241 NA
ATOM     27  C   LIG    1       55.986  63.717  37.237  0.00  0.00    +0.154 A 
ATOM     32  C   LIG    1       54.954  64.090  36.361  0.00  0.00    +0.038 A 
BRANCH  27  28
ATOM     28  C   LIG    1       56.979  64.667  37.848  0.00  0.00    +0.435 C 
ATOM     29  F   LIG    1       58.191  64.176  37.682  0.00  0.00    -0.164 F 
ATOM     30  F   LIG    1       56.759  64.952  39.117  0.00  0.00    -0.164 F 
ATOM     31  F   LIG    1       56.905  65.782  37.152  0.00  0.00    -0.164 F 
ENDBRANCH  27  28
ENDBRANCH   2   1
BRANCH   5   6
ATOM      6  C   LIG    1       50.161  64.517  32.067  0.00  0.00    +0.077 C 
ATOM      7  C   LIG    1       49.279  63.289  32.341  0.00  0.00    +0.044 C 
ATOM      8  C   LIG    1       47.873  63.721  31.924  0.00  0.00    +0.150 C 
ATOM     16  N   LIG    1       47.880  65.170  32.090  0.00  0.00    -0.209 NA
ATOM     17  C   LIG    1       49.213  65.692  32.359  0.00  0.00    +0.105 C 
BRANCH   8   9
ATOM      9  C   LIG    1       46.773  63.023  32.702  0.00  0.00    +0.242 C 
ATOM     10  O   LIG    1       46.483  63.420  33.830  0.00  0.00    -0.273 OA
ATOM     11  N   LIG    1       46.135  62.021  32.082  0.00  0.00    -0.268 N 
ATOM     12  C   LIG    1       46.542  61.594  30.737  0.00  0.00    +0.106 C 
ATOM     13  C   LIG    1       45.668  60.448  30.215  0.00  0.00    +0.081 C 
ATOM     14  S   LIG    1       44.905  59.813  31.632  0.00  0.00    -0.117 S 
ATOM     15  C   LIG    1       45.015  61.259  32.651  0.00  0.00    +0.152 C 
ENDBRANCH   8   9
ENDBRANCH   5   6
TORSDOF 4
ENDMDL
MODEL 8
REMARK VINA RESULT:    -7.428      4.688      7.950
REMARK INTER + INTRA:          -9.848
REMARK INTER:                  -8.938
REMARK INTRA:                  -0.910
REMARK UNBOUND:                -0.684
REMARK  Name = ligand_1
REMARK                            x       y       z     vdW  Elec       q    Type
REMARK                         _______ _______ _______ _____ _____    ______ ____
ROOT
ATOM      2  N   LIG    1       49.068  62.148  36.064  0.00  0.00    -0.305 N 
ATOM      3  C   LIG    1       49.370  60.799  35.594  0.00  0.00    +0.108 C 
ATOM      4  C   LIG    1       49.780  59.934  36.791  0.00  0.00    +0.094 C 
ATOM      5  N   LIG    1       48.760  60.018  37.847  0.00  0.00    -0.270 NA
ATOM     18  C   LIG    1       48.448  61.366  38.302  0.00  0.00    +0.094 C 
ATOM     19  C   LIG    1       48.035  62.223  37.107  0.00  0.00    +0.108 C 
ENDROOT
BRANCH   2   1
ATOM      1  C   LIG    1       49.048  63.180  35.061  0.00  0.00    +0.051 A 
ATOM     20  C   LIG    1       50.128  64.071  34.865  0.00  0.00    +0.031 A 
ATOM     21  C   LIG    1       51.232  64.083  35.714  0.00  0.00    +0.003 A 
ATOM     22  C   LIG    1       52.281  64.974  35.501  0.00  0.00    +0.000 A 
ATOM     23  C   LIG    1       52.247  65.877  34.437  0.00  0.00    +0.002 A 
ATOM     24  C   LIG    1       51.153  65.877  33.578  0.00  0.00    +0.019 A 
ATOM     25  C   LIG    1       50.109  64.983  33.793  0.00  0.00    +0.082 A 
ATOM     26  N   LIG    1       49.062  65.023  32.951  0.00  0.00    -0.241 NA
ATOM     27  C   LIG    1       48.007  64.197  33.105  0.00  0.00    +0.154 A 
ATOM     32  C   LIG    1       47.983  63.254  34.145  0.00  0.00    +0.038 A 
BRANCH  27  28
ATOM     28  C   LIG    1       46.933  64.353  32.063  0.00  0.00    +0.435 C 
ATOM     29  F   LIG    1       46.487  65.592  32.097  0.00  0.00    -0.164 F 
ATOM     30  F   LIG    1       45.937  63.493  32.166  0.00  0.00    -0.164 F 
ATOM     31  F   LIG    1       47.516  64.175  30.897  0.00  0.00    -0.164 F 
ENDBRANCH  27  28
ENDBRANCH   2   1
BRANCH   5   6
ATOM      6  C   LIG    1       49.174  59.203  39.023  0.00  0.00    +0.077 C 
ATOM      7  C   LIG    1       50.378  58.297  38.724  0.00  0.00    +0.044 C 
ATOM      8  C   LIG    1       51.048  58.082  40.081  0.00  0.00    +0.150 C 
ATOM     16  N   LIG    1       50.685  59.268  40.851  0.00  0.00    -0.209 NA
ATOM     17  C   LIG    1       49.684  60.083  40.176  0.00  0.00    +0.105 C 
BRANCH   8   9
ATOM      9  C   LIG    1       52.545  57.852  39.985  0.00  0.00    +0.242 C 
ATOM     10  O   LIG    1       53.196  58.448  39.128  0.00  0.00    -0.273 OA
ATOM     11  N   LIG    1       53.090  57.028  40.890  0.00  0.00    -0.268 N 
ATOM     12  C   LIG    1       52.248  56.342  41.880  0.00  0.00    +0.106 C 
ATOM     13  C   LIG    1       53.079  55.467  42.824  0.00  0.00    +0.081 C 
ATOM     14  S   LIG    1       54.589  55.266  42.004  0.00  0.00    -0.117 S 
ATOM     15  C   LIG    1       54.523  56.718  40.989  0.00  0.00    +0.152 C 
ENDBRANCH   8   9
ENDBRANCH   5   6
TORSDOF 4
ENDMDL
MODEL 9
REMARK VINA RESULT:    -7.416      5.477      7.811
REMARK INTER + INTRA:          -9.834
REMARK INTER:                  -9.111
REMARK INTRA:                  -0.723
REMARK UNBOUND:                -0.684
REMARK  Name = ligand_1
REMARK                            x       y       z     vdW  Elec       q    Type
REMARK                         _______ _______ _______ _____ _____    ______ ____
ROOT
ATOM      2  N   LIG    1       52.155  62.582  35.117  0.00  0.00    -0.305 N 
ATOM      3  C   LIG    1       53.326  63.345  35.538  0.00  0.00    +0.108 C 
ATOM      4  C   LIG    1       54.060  62.569  36.637  0.00  0.00    +0.094 C 
ATOM      5  N   LIG    1       54.333  61.195  36.187  0.00  0.00    -0.270 NA
ATOM     18  C   LIG    1       53.165  60.441  35.752  0.00  0.00    +0.094 C 
ATOM     19  C   LIG    1       52.440  61.216  34.654  0.00  0.00    +0.108 C 
ENDROOT
BRANCH   2   1
ATOM      1  C   LIG    1       51.148  63.311  34.393  0.00  0.00    +0.051 A 
ATOM     20  C   LIG    1       49.765  63.062  34.554  0.00  0.00    +0.031 A 
ATOM     21  C   LIG    1       49.296  62.009  35.335  0.00  0.00    +0.003 A 
ATOM     22  C   LIG    1       47.929  61.782  35.473  0.00  0.00    +0.000 A 
ATOM     23  C   LIG    1       47.000  62.601  34.829  0.00  0.00    +0.002 A 
ATOM     24  C   LIG    1       47.451  63.659  34.047  0.00  0.00    +0.019 A 
ATOM     25  C   LIG    1       48.818  63.883  33.914  0.00  0.00    +0.082 A 
ATOM     26  N   LIG    1       49.216  64.906  33.138  0.00  0.00    -0.241 NA
ATOM     27  C   LIG    1       50.524  65.176  32.951  0.00  0.00    +0.154 A 
ATOM     32  C   LIG    1       51.511  64.400  33.581  0.00  0.00    +0.038 A 
BRANCH  27  28
ATOM     28  C   LIG    1       50.798  66.369  32.077  0.00  0.00    +0.435 C 
ATOM     29  F   LIG    1       51.240  65.945  30.909  0.00  0.00    -0.164 F 
ATOM     30  F   LIG    1       51.627  67.254  32.598  0.00  0.00    -0.164 F 
ATOM     31  F   LIG    1       49.638  66.955  31.872  0.00  0.00    -0.164 F 
ENDBRANCH  27  28
ENDBRANCH   2   1
BRANCH   5   6
ATOM      6  C   LIG    1       55.017  60.431  37.268  0.00  0.00    +0.077 C 
ATOM      7  C   LIG    1       54.087  59.428  37.966  0.00  0.00    +0.044 C 
ATOM      8  C   LIG    1       55.020  58.344  38.505  0.00  0.00    +0.150 C 
ATOM     16  N   LIG    1       56.173  58.388  37.612  0.00  0.00    -0.209 NA
ATOM     17  C   LIG    1       56.136  59.534  36.713  0.00  0.00    +0.105 C 
BRANCH   8   9
ATOM      9  C   LIG    1       54.369  56.976  38.593  0.00  0.00    +0.242 C 
ATOM     10  O   LIG    1       53.949  56.438  37.569  0.00  0.00    -0.273 OA
ATOM     11  N   LIG    1       54.329  56.401  39.803  0.00  0.00    -0.268 N 
ATOM     12  C   LIG    1       54.842  57.108  40.984  0.00  0.00    +0.106 C 
ATOM     13  C   LIG    1       54.714  56.261  42.254  0.00  0.00    +0.081 C 
ATOM     14  S   LIG    1       53.561  55.039  41.838  0.00  0.00    -0.117 S 
ATOM     15  C   LIG    1       53.785  55.065  40.080  0.00  0.00    +0.152 C 
ENDBRANCH   8   9
ENDBRANCH   5   6
TORSDOF 4
ENDMDL
