MODEL 1
REMARK VINA RESULT:    -8.442      0.000      0.000
REMARK INTER + INTRA:         -11.118
REMARK INTER:                 -10.416
REMARK INTRA:                  -0.702
REMARK UNBOUND:                -0.702
REMARK  Name = ligand_1
REMARK                            x       y       z     vdW  Elec       q    Type
REMARK                         _______ _______ _______ _____ _____    ______ ____
ROOT
ATOM      2  N   LIG    1       50.271  61.807  38.266  0.00  0.00    -0.305 N 
ATOM      3  C   LIG    1       50.382  63.190  38.719  0.00  0.00    +0.108 C 
ATOM      4  C   LIG    1       51.610  63.832  38.065  0.00  0.00    +0.094 C 
ATOM      5  N   LIG    1       51.558  63.652  36.606  0.00  0.00    -0.270 NA
ATOM     18  C   LIG    1       51.431  62.271  36.157  0.00  0.00    +0.094 C 
ATOM     19  C   LIG    1       50.203  61.637  36.807  0.00  0.00    +0.108 C 
ENDROOT
BRANCH   2   1
ATOM      1  C   LIG    1       49.431  60.945  39.055  0.00  0.00    +0.051 A 
ATOM     20  C   LIG    1       49.946  59.869  39.814  0.00  0.00    +0.031 A 
ATOM     21  C   LIG    1       51.287  59.499  39.747  0.00  0.00    +0.003 A 
ATOM     22  C   LIG    1       51.767  58.432  40.501  0.00  0.00    +0.000 A 
ATOM     23  C   LIG    1       50.916  57.706  41.336  0.00  0.00    +0.002 A 
ATOM     24  C   LIG    1       49.574  58.063  41.416  0.00  0.00    +0.019 A 
ATOM     25  C   LIG    1       49.099  59.132  40.663  0.00  0.00    +0.082 A 
ATOM     26  N   LIG    1       47.794  59.437  40.755  0.00  0.00    -0.241 NA
ATOM     27  C   LIG    1       47.259  60.451  40.044  0.00  0.00    +0.154 A 
ATOM     32  C   LIG    1       48.062  61.231  39.197  0.00  0.00    +0.038 A 
BRANCH  27  28
ATOM     28  C   LIG    1       45.790  60.676  40.283  0.00  0.00    +0.435 C 
ATOM     29  F   LIG    1       45.412  59.946  41.313  0.00  0.00    -0.164 F 
ATOM     30  F   LIG    1       45.021  60.445  39.236  0.00  0.00    -0.164 F 
ATOM     31  F   LIG    1       45.658  61.940  40.625  0.00  0.00    -0.164 F 
ENDBRANCH  27  28
ENDBRANCH   2   1
BRANCH   5   6
ATOM      6  C   LIG    1       52.769  64.247  35.975  0.00  0.00    +0.077 C 
ATOM      7  C   LIG    1       54.031  64.079  36.834  0.00  0.00    +0.044 C 
ATOM      8  C   LIG    1       55.187  64.109  35.833  0.00  0.00    +0.150 C 
ATOM     16  N   LIG    1       54.594  63.638  34.587  0.00  0.00    -0.209 NA
ATOM     17  C   LIG    1       53.144  63.529  34.668  0.00  0.00    +0.105 C 
BRANCH   8   9
ATOM      9  C   LIG    1       56.391  63.301  36.280  0.00  0.00    +0.242 C 
ATOM     10  O   LIG    1       56.592  62.191  35.789  0.00  0.00    -0.273 OA
ATOM     11  N   LIG    1       57.211  63.878  37.170  0.00  0.00    -0.268 N 
ATOM     12  C   LIG    1       56.903  65.205  37.720  0.00  0.00    +0.106 C 
ATOM     13  C   LIG    1       57.980  65.677  38.702  0.00  0.00    +0.081 C 
ATOM     14  S   LIG    1       58.837  64.234  39.124  0.00  0.00    -0.117 S 
ATOM     15  C   LIG    1       58.449  63.276  37.683  0.00  0.00    +0.152 C 
ENDBRANCH   8   9
ENDBRANCH   5   6
TORSDOF 4
ENDMDL
MODEL 2
REMARK VINA RESULT:    -8.177      5.447      9.881
REMARK INTER + INTRA:         -10.792
REMARK INTER:                  -9.941
REMARK INTRA:                  -0.851
REMARK UNBOUND:                -0.702
REMARK  Name = ligand_1
REMARK                            x       y       z     vdW  Elec       q    Type
REMARK                         _______ _______ _______ _____ _____    ______ ____
ROOT
ATOM      2  N   LIG    1       51.244  62.622  37.442  0.00  0.00    -0.305 N 
ATOM      3  C   LIG    1       50.836  63.361  38.633  0.00  0.00    +0.108 C 
ATOM      4  C   LIG    1       49.655  62.639  39.289  0.00  0.00    +0.094 C 
ATOM      5  N   LIG    1       49.989  61.224  39.512  0.00  0.00    -0.270 NA
ATOM     18  C   LIG    1       50.412  60.492  38.326  0.00  0.00    +0.094 C 
ATOM     19  C   LIG    1       51.593  61.213  37.679  0.00  0.00    +0.108 C 
ENDROOT
BRANCH   2   1
ATOM      1  C   LIG    1       52.060  63.338  36.498  0.00  0.00    +0.051 A 
ATOM     20  C   LIG    1       51.517  63.997  35.370  0.00  0.00    +0.031 A 
ATOM     21  C   LIG    1       50.169  63.889  35.036  0.00  0.00    +0.003 A 
ATOM     22  C   LIG    1       49.661  64.543  33.918  0.00  0.00    +0.000 A 
ATOM     23  C   LIG    1       50.490  65.317  33.104  0.00  0.00    +0.002 A 
ATOM     24  C   LIG    1       51.838  65.438  33.424  0.00  0.00    +0.019 A 
ATOM     25  C   LIG    1       52.341  64.784  34.545  0.00  0.00    +0.082 A 
ATOM     26  N   LIG    1       53.651  64.912  34.813  0.00  0.00    -0.241 NA
ATOM     27  C   LIG    1       54.213  64.296  35.874  0.00  0.00    +0.154 A 
ATOM     32  C   LIG    1       53.433  63.515  36.742  0.00  0.00    +0.038 A 
BRANCH  27  28
ATOM     28  C   LIG    1       55.683  64.564  36.047  0.00  0.00    +0.435 C 
ATOM     29  F   LIG    1       56.359  63.543  35.562  0.00  0.00    -0.164 F 
ATOM     30  F   LIG    1       56.052  64.824  37.287  0.00  0.00    -0.164 F 
ATOM     31  F   LIG    1       55.961  65.613  35.303  0.00  0.00    -0.164 F 
ENDBRANCH  27  28
ENDBRANCH   2   1
BRANCH   5   6
ATOM      6  C   LIG    1       48.829  60.514  40.120  0.00  0.00    +0.077 C 
ATOM      7  C   LIG    1       48.570  59.142  39.479  0.00  0.00    +0.044 C 
ATOM      8  C   LIG    1       47.872  58.331  40.571  0.00  0.00    +0.150 C 
ATOM     16  N   LIG    1       48.339  58.930  41.816  0.00  0.00    -0.209 NA
ATOM     17  C   LIG    1       49.082  60.163  41.595  0.00  0.00    +0.105 C 
BRANCH   8   9
ATOM      9  C   LIG    1       48.135  56.839  40.475  0.00  0.00    +0.242 C 
ATOM     10  O   LIG    1       49.202  56.385  40.884  0.00  0.00    -0.273 OA
ATOM     11  N   LIG    1       47.147  56.081  39.981  0.00  0.00    -0.268 N 
ATOM     12  C   LIG    1       45.901  56.695  39.502  0.00  0.00    +0.106 C 
ATOM     13  C   LIG    1       44.906  55.644  38.997  0.00  0.00    +0.081 C 
ATOM     14  S   LIG    1       45.871  54.231  38.739  0.00  0.00    -0.117 S 
ATOM     15  C   LIG    1       47.194  54.618  39.855  0.00  0.00    +0.152 C 
ENDBRANCH   8   9
ENDBRANCH   5   6
TORSDOF 4
ENDMDL
MODEL 3
REMARK VINA RESULT:    -7.719      4.973      9.312
REMARK INTER + INTRA:         -10.227
REMARK INTER:                  -9.958
REMARK INTRA:                  -0.269
REMARK UNBOUND:                -0.702
REMARK  Name = ligand_1
REMARK                            x       y       z     vdW  Elec       q    Type
REMARK                         _______ _______ _______ _____ _____    ______ ____
ROOT
ATOM      2  N   LIG    1       50.968  62.401  37.218  0.00  0.00    -0.305 N 
ATOM      3  C   LIG    1       50.049  61.467  36.576  0.00  0.00    +0.108 C 
ATOM      4  C   LIG    1       49.563  60.451  37.615  0.00  0.00    +0.094 C 
ATOM      5  N   LIG    1       49.026  61.151  38.792  0.00  0.00    -0.270 NA
ATOM     18  C   LIG    1       49.939  62.096  39.422  0.00  0.00    +0.094 C 
ATOM     19  C   LIG    1       50.417  63.109  38.383  0.00  0.00    +0.108 C 
ENDROOT
BRANCH   2   1
ATOM      1  C   LIG    1       51.812  63.167  36.339  0.00  0.00    +0.051 A 
ATOM     20  C   LIG    1       51.301  63.904  35.246  0.00  0.00    +0.031 A 
ATOM     21  C   LIG    1       49.960  63.835  34.877  0.00  0.00    +0.003 A 
ATOM     22  C   LIG    1       49.484  64.567  33.793  0.00  0.00    +0.000 A 
ATOM     23  C   LIG    1       50.340  65.382  33.049  0.00  0.00    +0.002 A 
ATOM     24  C   LIG    1       51.682  65.464  33.404  0.00  0.00    +0.019 A 
ATOM     25  C   LIG    1       52.153  64.732  34.490  0.00  0.00    +0.082 A 
ATOM     26  N   LIG    1       53.459  64.825  34.794  0.00  0.00    -0.241 NA
ATOM     27  C   LIG    1       53.989  64.135  35.824  0.00  0.00    +0.154 A 
ATOM     32  C   LIG    1       53.182  63.309  36.622  0.00  0.00    +0.038 A 
BRANCH  27  28
ATOM     28  C   LIG    1       55.459  64.371  36.045  0.00  0.00    +0.435 C 
ATOM     29  F   LIG    1       56.126  63.316  35.623  0.00  0.00    -0.164 F 
ATOM     30  F   LIG    1       55.787  64.668  37.288  0.00  0.00    -0.164 F 
ATOM     31  F   LIG    1       55.793  65.384  35.274  0.00  0.00    -0.164 F 
ENDBRANCH  27  28
ENDBRANCH   2   1
BRANCH   5   6
ATOM      6  C   LIG    1       48.585  60.163  39.816  0.00  0.00    +0.077 C 
ATOM      7  C   LIG    1       49.355  58.837  39.734  0.00  0.00    +0.044 C 
ATOM      8  C   LIG    1       49.284  58.259  41.148  0.00  0.00    +0.150 C 
ATOM     16  N   LIG    1       49.133  59.430  42.005  0.00  0.00    -0.209 NA
ATOM     17  C   LIG    1       48.886  60.647  41.244  0.00  0.00    +0.105 C 
BRANCH   8   9
ATOM      9  C   LIG    1       50.477  57.392  41.505  0.00  0.00    +0.242 C 
ATOM     10  O   LIG    1       51.615  57.840  41.365  0.00  0.00    -0.273 OA
ATOM     11  N   LIG    1       50.215  56.178  42.008  0.00  0.00    -0.268 N 
ATOM     12  C   LIG    1       48.829  55.707  42.138  0.00  0.00    +0.106 C 
ATOM     13  C   LIG    1       48.761  54.304  42.750  0.00  0.00    +0.081 C 
ATOM     14  S   LIG    1       50.362  53.675  42.557  0.00  0.00    -0.117 S 
ATOM     15  C   LIG    1       51.231  55.217  42.456  0.00  0.00    +0.152 C 
ENDBRANCH   8   9
ENDBRANCH   5   6
TORSDOF 4
ENDMDL
MODEL 4
REMARK VINA RESULT:    -7.658      4.645      8.856
REMARK INTER + INTRA:         -10.151
REMARK INTER:                  -9.596
REMARK INTRA:                  -0.554
REMARK UNBOUND:                -0.702
REMARK  Name = ligand_1
REMARK                            x       y       z     vdW  Elec       q    Type
REMARK                         _______ _______ _______ _____ _____    ______ ____
ROOT
ATOM      2  N   LIG    1       50.604  63.019  36.528  0.00  0.00    -0.305 N 
ATOM      3  C   LIG    1       49.254  62.676  36.090  0.00  0.00    +0.108 C 
ATOM      4  C   LIG    1       48.758  61.472  36.898  0.00  0.00    +0.094 C 
ATOM      5  N   LIG    1       48.903  61.736  38.337  0.00  0.00    -0.270 NA
ATOM     18  C   LIG    1       50.248  62.095  38.770  0.00  0.00    +0.094 C 
ATOM     19  C   LIG    1       50.736  63.298  37.965  0.00  0.00    +0.108 C 
ENDROOT
BRANCH   2   1
ATOM      1  C   LIG    1       51.369  63.851  35.637  0.00  0.00    +0.051 A 
ATOM     20  C   LIG    1       52.782  63.823  35.596  0.00  0.00    +0.031 A 
ATOM     21  C   LIG    1       53.528  63.075  36.504  0.00  0.00    +0.003 A 
ATOM     22  C   LIG    1       54.918  63.069  36.444  0.00  0.00    +0.000 A 
ATOM     23  C   LIG    1       55.597  63.815  35.479  0.00  0.00    +0.002 A 
ATOM     24  C   LIG    1       54.867  64.566  34.563  0.00  0.00    +0.019 A 
ATOM     25  C   LIG    1       53.478  64.567  34.624  0.00  0.00    +0.082 A 
ATOM     26  N   LIG    1       52.808  65.317  33.732  0.00  0.00    -0.241 NA
ATOM     27  C   LIG    1       51.461  65.378  33.739  0.00  0.00    +0.154 A 
ATOM     32  C   LIG    1       50.716  64.641  34.674  0.00  0.00    +0.038 A 
BRANCH  27  28
ATOM     28  C   LIG    1       50.868  66.241  32.658  0.00  0.00    +0.435 C 
ATOM     29  F   LIG    1       50.946  67.502  33.034  0.00  0.00    -0.164 F 
ATOM     30  F   LIG    1       49.631  65.928  32.321  0.00  0.00    -0.164 F 
ATOM     31  F   LIG    1       51.637  66.095  31.601  0.00  0.00    -0.164 F 
ENDBRANCH  27  28
ENDBRANCH   2   1
BRANCH   5   6
ATOM      6  C   LIG    1       48.452  60.553  39.122  0.00  0.00    +0.077 C 
ATOM      7  C   LIG    1       49.483  59.415  39.127  0.00  0.00    +0.044 C 
ATOM      8  C   LIG    1       49.205  58.645  40.418  0.00  0.00    +0.150 C 
ATOM     16  N   LIG    1       48.609  59.639  41.305  0.00  0.00    -0.209 NA
ATOM     17  C   LIG    1       48.297  60.883  40.615  0.00  0.00    +0.105 C 
BRANCH   8   9
ATOM      9  C   LIG    1       50.436  57.971  40.996  0.00  0.00    +0.242 C 
ATOM     10  O   LIG    1       51.525  58.541  40.931  0.00  0.00    -0.273 OA
ATOM     11  N   LIG    1       50.252  56.788  41.597  0.00  0.00    -0.268 N 
ATOM     12  C   LIG    1       48.923  56.163  41.628  0.00  0.00    +0.106 C 
ATOM     13  C   LIG    1       48.939  54.828  42.379  0.00  0.00    +0.081 C 
ATOM     14  S   LIG    1       50.611  54.387  42.431  0.00  0.00    -0.117 S 
ATOM     15  C   LIG    1       51.308  56.008  42.256  0.00  0.00    +0.152 C 
ENDBRANCH   8   9
ENDBRANCH   5   6
TORSDOF 4
ENDMDL
MODEL 5
REMARK VINA RESULT:    -7.537      5.263      6.995
REMARK INTER + INTRA:         -10.001
REMARK INTER:                  -9.434
REMARK INTRA:                  -0.567
REMARK UNBOUND:                -0.702
REMARK  Name = ligand_1
REMARK                            x       y       z     vdW  Elec       q    Type
REMARK                         _______ _______ _______ _____ _____    ______ ____
ROOT
ATOM      2  N   LIG    1       53.564  57.975  38.694  0.00  0.00    -0.305 N 
ATOM      3  C   LIG    1       54.519  59.026  38.354  0.00  0.00    +0.108 C 
ATOM      4  C   LIG    1       54.042  59.742  37.086  0.00  0.00    +0.094 C 
ATOM      5  N   LIG    1       52.650  60.188  37.251  0.00  0.00    -0.270 NA
ATOM     18  C   LIG    1       51.701  59.140  37.607  0.00  0.00    +0.094 C 
ATOM     19  C   LIG    1       52.178  58.433  38.874  0.00  0.00    +0.108 C 
ENDROOT
BRANCH   2   1
ATOM      1  C   LIG    1       54.031  56.962  39.603  0.00  0.00    +0.051 A 
ATOM     20  C   LIG    1       54.832  55.874  39.182  0.00  0.00    +0.031 A 
ATOM     21  C   LIG    1       55.116  55.649  37.838  0.00  0.00    +0.003 A 
ATOM     22  C   LIG    1       55.902  54.568  37.451  0.00  0.00    +0.000 A 
ATOM     23  C   LIG    1       56.419  53.683  38.399  0.00  0.00    +0.002 A 
ATOM     24  C   LIG    1       56.147  53.895  39.747  0.00  0.00    +0.019 A 
ATOM     25  C   LIG    1       55.363  54.978  40.129  0.00  0.00    +0.082 A 
ATOM     26  N   LIG    1       55.109  55.141  41.439  0.00  0.00    -0.241 NA
ATOM     27  C   LIG    1       54.346  56.161  41.883  0.00  0.00    +0.154 A 
ATOM     32  C   LIG    1       53.807  57.095  40.984  0.00  0.00    +0.038 A 
BRANCH  27  28
ATOM     28  C   LIG    1       54.182  56.214  43.378  0.00  0.00    +0.435 C 
ATOM     29  F   LIG    1       54.298  54.993  43.860  0.00  0.00    -0.164 F 
ATOM     30  F   LIG    1       53.061  56.775  43.789  0.00  0.00    -0.164 F 
ATOM     31  F   LIG    1       55.193  56.919  43.839  0.00  0.00    -0.164 F 
ENDBRANCH  27  28
ENDBRANCH   2   1
BRANCH   5   6
ATOM      6  C   LIG    1       52.176  60.855  36.006  0.00  0.00    +0.077 C 
ATOM      7  C   LIG    1       51.552  62.233  36.271  0.00  0.00    +0.044 C 
ATOM      8  C   LIG    1       51.744  63.003  34.965  0.00  0.00    +0.150 C 
ATOM     16  N   LIG    1       52.920  62.390  34.357  0.00  0.00    -0.209 NA
ATOM     17  C   LIG    1       53.338  61.181  35.055  0.00  0.00    +0.105 C 
BRANCH   8   9
ATOM      9  C   LIG    1       51.871  64.502  35.162  0.00  0.00    +0.242 C 
ATOM     10  O   LIG    1       52.230  64.942  36.253  0.00  0.00    -0.273 OA
ATOM     11  N   LIG    1       51.623  65.276  34.096  0.00  0.00    -0.268 N 
ATOM     12  C   LIG    1       51.189  64.681  32.825  0.00  0.00    +0.106 C 
ATOM     13  C   LIG    1       50.981  65.744  31.741  0.00  0.00    +0.081 C 
ATOM     14  S   LIG    1       50.858  67.231  32.618  0.00  0.00    -0.117 S 
ATOM     15  C   LIG    1       51.740  66.740  34.076  0.00  0.00    +0.152 C 
ENDBRANCH   8   9
ENDBRANCH   5   6
TORSDOF 4
ENDMDL
MODEL 6
REMARK VINA RESULT:    -7.360      5.522      7.109
REMARK INTER + INTRA:          -9.783
REMARK INTER:                  -8.854
REMARK INTRA:                  -0.929
REMARK UNBOUND:                -0.702
REMARK  Name = ligand_1
REMARK                            x       y       z     vdW  Elec       q    Type
REMARK                         _______ _______ _______ _____ _____    ______ ____
ROOT
ATOM      2  N   LIG    1       52.428  58.055  38.822  0.00  0.00    -0.305 N 
ATOM      3  C   LIG    1       51.839  56.727  38.669  0.00  0.00    +0.108 C 
ATOM      4  C   LIG    1       52.726  55.892  37.739  0.00  0.00    +0.094 C 
ATOM      5  N   LIG    1       54.117  55.911  38.217  0.00  0.00    -0.270 NA
ATOM     18  C   LIG    1       54.697  57.238  38.384  0.00  0.00    +0.094 C 
ATOM     19  C   LIG    1       53.813  58.064  39.316  0.00  0.00    +0.108 C 
ENDROOT
BRANCH   2   1
ATOM      1  C   LIG    1       51.556  59.082  39.327  0.00  0.00    +0.051 A 
ATOM     20  C   LIG    1       51.365  60.314  38.659  0.00  0.00    +0.031 A 
ATOM     21  C   LIG    1       52.106  60.659  37.532  0.00  0.00    +0.003 A 
ATOM     22  C   LIG    1       51.902  61.880  36.896  0.00  0.00    +0.000 A 
ATOM     23  C   LIG    1       50.956  62.788  37.376  0.00  0.00    +0.002 A 
ATOM     24  C   LIG    1       50.206  62.458  38.500  0.00  0.00    +0.019 A 
ATOM     25  C   LIG    1       50.411  61.235  39.131  0.00  0.00    +0.082 A 
ATOM     26  N   LIG    1       49.678  60.958  40.223  0.00  0.00    -0.241 NA
ATOM     27  C   LIG    1       49.832  59.799  40.895  0.00  0.00    +0.154 A 
ATOM     32  C   LIG    1       50.756  58.836  40.457  0.00  0.00    +0.038 A 
BRANCH  27  28
ATOM     28  C   LIG    1       48.917  59.635  42.078  0.00  0.00    +0.435 C 
ATOM     29  F   LIG    1       47.790  60.274  41.833  0.00  0.00    -0.164 F 
ATOM     30  F   LIG    1       49.433  60.020  43.230  0.00  0.00    -0.164 F 
ATOM     31  F   LIG    1       48.635  58.352  42.157  0.00  0.00    -0.164 F 
ENDBRANCH  27  28
ENDBRANCH   2   1
BRANCH   5   6
ATOM      6  C   LIG    1       54.984  55.127  37.294  0.00  0.00    +0.077 C 
ATOM      7  C   LIG    1       55.181  55.814  35.934  0.00  0.00    +0.044 C 
ATOM      8  C   LIG    1       56.521  55.285  35.423  0.00  0.00    +0.150 C 
ATOM     16  N   LIG    1       57.256  54.942  36.635  0.00  0.00    -0.209 NA
ATOM     17  C   LIG    1       56.421  55.003  37.828  0.00  0.00    +0.105 C 
BRANCH   8   9
ATOM      9  C   LIG    1       57.251  56.265  34.524  0.00  0.00    +0.242 C 
ATOM     10  O   LIG    1       57.524  57.388  34.946  0.00  0.00    -0.273 OA
ATOM     11  N   LIG    1       57.606  55.824  33.309  0.00  0.00    -0.268 N 
ATOM     12  C   LIG    1       57.237  54.472  32.868  0.00  0.00    +0.106 C 
ATOM     13  C   LIG    1       57.757  54.171  31.458  0.00  0.00    +0.081 C 
ATOM     14  S   LIG    1       58.119  55.728  30.796  0.00  0.00    -0.117 S 
ATOM     15  C   LIG    1       58.358  56.605  32.318  0.00  0.00    +0.152 C 
ENDBRANCH   8   9
ENDBRANCH   5   6
TORSDOF 4
ENDMDL
MODEL 7
REMARK VINA RESULT:    -7.075      5.102      6.874
REMARK INTER + INTRA:          -9.432
REMARK INTER:                  -8.548
REMARK INTRA:                  -0.884
REMARK UNBOUND:                -0.702
REMARK  Name = ligand_1
REMARK                            x       y       z     vdW  Elec       q    Type
REMARK                         _______ _______ _______ _____ _____    ______ ____
ROOT
ATOM      2  N   LIG    1       51.790  59.579  37.707  0.00  0.00    -0.305 N 
ATOM      3  C   LIG    1       51.614  58.565  36.671  0.00  0.00    +0.108 C 
ATOM      4  C   LIG    1       51.332  59.261  35.335  0.00  0.00    +0.094 C 
ATOM      5  N   LIG    1       52.370  60.266  35.061  0.00  0.00    -0.270 NA
ATOM     18  C   LIG    1       52.556  61.267  36.104  0.00  0.00    +0.094 C 
ATOM     19  C   LIG    1       52.842  60.569  37.432  0.00  0.00    +0.108 C 
ENDROOT
BRANCH   2   1
ATOM      1  C   LIG    1       51.674  59.123  39.067  0.00  0.00    +0.051 A 
ATOM     20  C   LIG    1       50.611  59.517  39.912  0.00  0.00    +0.031 A 
ATOM     21  C   LIG    1       49.674  60.469  39.518  0.00  0.00    +0.003 A 
ATOM     22  C   LIG    1       48.640  60.842  40.372  0.00  0.00    +0.000 A 
ATOM     23  C   LIG    1       48.520  60.276  41.642  0.00  0.00    +0.002 A 
ATOM     24  C   LIG    1       49.446  59.321  42.051  0.00  0.00    +0.019 A 
ATOM     25  C   LIG    1       50.476  58.949  41.194  0.00  0.00    +0.082 A 
ATOM     26  N   LIG    1       51.360  58.035  41.630  0.00  0.00    -0.241 NA
ATOM     27  C   LIG    1       52.393  57.636  40.860  0.00  0.00    +0.154 A 
ATOM     32  C   LIG    1       52.563  58.155  39.567  0.00  0.00    +0.038 A 
BRANCH  27  28
ATOM     28  C   LIG    1       53.272  56.589  41.487  0.00  0.00    +0.435 C 
ATOM     29  F   LIG    1       54.528  56.975  41.386  0.00  0.00    -0.164 F 
ATOM     30  F   LIG    1       53.115  55.373  40.998  0.00  0.00    -0.164 F 
ATOM     31  F   LIG    1       52.968  56.564  42.767  0.00  0.00    -0.164 F 
ENDBRANCH  27  28
ENDBRANCH   2   1
BRANCH   5   6
ATOM      6  C   LIG    1       52.078  60.966  33.779  0.00  0.00    +0.077 C 
ATOM      7  C   LIG    1       50.680  61.602  33.754  0.00  0.00    +0.044 C 
ATOM      8  C   LIG    1       50.797  62.757  32.759  0.00  0.00    +0.150 C 
ATOM     16  N   LIG    1       52.209  63.124  32.802  0.00  0.00    -0.209 NA
ATOM     17  C   LIG    1       53.008  62.170  33.559  0.00  0.00    +0.105 C 
BRANCH   8   9
ATOM      9  C   LIG    1       49.858  63.910  33.060  0.00  0.00    +0.242 C 
ATOM     10  O   LIG    1       50.227  64.812  33.811  0.00  0.00    -0.273 OA
ATOM     11  N   LIG    1       48.670  63.901  32.439  0.00  0.00    -0.268 N 
ATOM     12  C   LIG    1       48.293  62.785  31.562  0.00  0.00    +0.106 C 
ATOM     13  C   LIG    1       46.906  62.990  30.945  0.00  0.00    +0.081 C 
ATOM     14  S   LIG    1       46.170  64.200  31.939  0.00  0.00    -0.117 S 
ATOM     15  C   LIG    1       47.649  64.950  32.565  0.00  0.00    +0.152 C 
ENDBRANCH   8   9
ENDBRANCH   5   6
TORSDOF 4
ENDMDL
MODEL 8
REMARK VINA RESULT:    -6.667      6.054      8.484
REMARK INTER + INTRA:          -8.928
REMARK INTER:                  -9.494
REMARK INTRA:                   0.567
REMARK UNBOUND:                -0.702
REMARK  Name = ligand_1
REMARK                            x       y       z     vdW  Elec       q    Type
REMARK                         _______ _______ _______ _____ _____    ______ ____
ROOT
ATOM      2  N   LIG    1       52.504  63.409  35.582  0.00  0.00    -0.305 N 
ATOM      3  C   LIG    1       52.597  64.401  34.516  0.00  0.00    +0.108 C 
ATOM      4  C   LIG    1       51.337  64.322  33.648  0.00  0.00    +0.094 C 
ATOM      5  N   LIG    1       50.136  64.418  34.492  0.00  0.00    -0.270 NA
ATOM     18  C   LIG    1       50.053  63.437  35.566  0.00  0.00    +0.094 C 
ATOM     19  C   LIG    1       51.309  63.523  36.431  0.00  0.00    +0.108 C 
ENDROOT
BRANCH   2   1
ATOM      1  C   LIG    1       53.736  63.071  36.245  0.00  0.00    +0.051 A 
ATOM     20  C   LIG    1       54.182  61.736  36.386  0.00  0.00    +0.031 A 
ATOM     21  C   LIG    1       53.395  60.655  35.999  0.00  0.00    +0.003 A 
ATOM     22  C   LIG    1       53.856  59.350  36.153  0.00  0.00    +0.000 A 
ATOM     23  C   LIG    1       55.113  59.096  36.703  0.00  0.00    +0.002 A 
ATOM     24  C   LIG    1       55.914  60.165  37.093  0.00  0.00    +0.019 A 
ATOM     25  C   LIG    1       55.450  61.467  36.934  0.00  0.00    +0.082 A 
ATOM     26  N   LIG    1       56.246  62.473  37.337  0.00  0.00    -0.241 NA
ATOM     27  C   LIG    1       55.858  63.760  37.227  0.00  0.00    +0.154 A 
ATOM     32  C   LIG    1       54.611  64.086  36.669  0.00  0.00    +0.038 A 
BRANCH  27  28
ATOM     28  C   LIG    1       56.875  64.763  37.699  0.00  0.00    +0.435 C 
ATOM     29  F   LIG    1       58.079  64.252  37.536  0.00  0.00    -0.164 F 
ATOM     30  F   LIG    1       56.706  65.175  38.941  0.00  0.00    -0.164 F 
ATOM     31  F   LIG    1       56.774  65.802  36.898  0.00  0.00    -0.164 F 
ENDBRANCH  27  28
ENDBRANCH   2   1
BRANCH   5   6
ATOM      6  C   LIG    1       48.911  64.307  33.652  0.00  0.00    +0.077 C 
ATOM      7  C   LIG    1       49.189  63.690  32.273  0.00  0.00    +0.044 C 
ATOM      8  C   LIG    1       47.861  63.060  31.855  0.00  0.00    +0.150 C 
ATOM     16  N   LIG    1       47.194  62.759  33.117  0.00  0.00    -0.209 NA
ATOM     17  C   LIG    1       47.886  63.338  34.262  0.00  0.00    +0.105 C 
BRANCH   8   9
ATOM      9  C   LIG    1       48.024  61.854  30.949  0.00  0.00    +0.242 C 
ATOM     10  O   LIG    1       47.239  61.686  30.016  0.00  0.00    -0.273 OA
ATOM     11  N   LIG    1       49.065  61.048  31.196  0.00  0.00    -0.268 N 
ATOM     12  C   LIG    1       49.956  61.305  32.335  0.00  0.00    +0.106 C 
ATOM     13  C   LIG    1       51.086  60.273  32.418  0.00  0.00    +0.081 C 
ATOM     14  S   LIG    1       50.537  58.958  31.437  0.00  0.00    -0.117 S 
ATOM     15  C   LIG    1       49.416  59.862  30.402  0.00  0.00    +0.152 C 
ENDBRANCH   8   9
ENDBRANCH   5   6
TORSDOF 4
ENDMDL
MODEL 9
REMARK VINA RESULT:    -6.615      3.870      5.290
REMARK INTER + INTRA:          -8.864
REMARK INTER:                  -8.116
REMARK INTRA:                  -0.748
REMARK UNBOUND:                -0.702
REMARK  Name = ligand_1
REMARK                            x       y       z     vdW  Elec       q    Type
REMARK                         _______ _______ _______ _____ _____    ______ ____
ROOT
ATOM      2  N   LIG    1       52.147  57.991  39.069  0.00  0.00    -0.305 N 
ATOM      3  C   LIG    1       51.287  59.144  38.821  0.00  0.00    +0.108 C 
ATOM      4  C   LIG    1       52.017  60.121  37.895  0.00  0.00    +0.094 C 
ATOM      5  N   LIG    1       52.488  59.419  36.691  0.00  0.00    -0.270 NA
ATOM     18  C   LIG    1       53.333  58.258  36.941  0.00  0.00    +0.094 C 
ATOM     19  C   LIG    1       52.599  57.285  37.861  0.00  0.00    +0.108 C 
ENDROOT
BRANCH   2   1
ATOM      1  C   LIG    1       51.802  57.173  40.202  0.00  0.00    +0.051 A 
ATOM     20  C   LIG    1       52.750  56.790  41.179  0.00  0.00    +0.031 A 
ATOM     21  C   LIG    1       54.105  57.079  41.040  0.00  0.00    +0.003 A 
ATOM     22  C   LIG    1       55.018  56.686  42.014  0.00  0.00    +0.000 A 
ATOM     23  C   LIG    1       54.598  55.990  43.149  0.00  0.00    +0.002 A 
ATOM     24  C   LIG    1       53.248  55.695  43.305  0.00  0.00    +0.019 A 
ATOM     25  C   LIG    1       52.338  56.092  42.330  0.00  0.00    +0.082 A 
ATOM     26  N   LIG    1       51.045  55.776  42.509  0.00  0.00    -0.241 NA
ATOM     27  C   LIG    1       50.108  56.115  41.600  0.00  0.00    +0.154 A 
ATOM     32  C   LIG    1       50.460  56.829  40.443  0.00  0.00    +0.038 A 
BRANCH  27  28
ATOM     28  C   LIG    1       48.706  55.710  41.964  0.00  0.00    +0.435 C 
ATOM     29  F   LIG    1       47.895  56.718  41.714  0.00  0.00    -0.164 F 
ATOM     30  F   LIG    1       48.561  55.289  43.206  0.00  0.00    -0.164 F 
ATOM     31  F   LIG    1       48.378  54.728  41.152  0.00  0.00    -0.164 F 
ENDBRANCH  27  28
ENDBRANCH   2   1
BRANCH   5   6
ATOM      6  C   LIG    1       53.227  60.362  35.805  0.00  0.00    +0.077 C 
ATOM      7  C   LIG    1       52.418  61.625  35.475  0.00  0.00    +0.044 C 
ATOM      8  C   LIG    1       53.470  62.693  35.177  0.00  0.00    +0.150 C 
ATOM     16  N   LIG    1       54.641  62.263  35.934  0.00  0.00    -0.209 NA
ATOM     17  C   LIG    1       54.481  60.927  36.492  0.00  0.00    +0.105 C 
BRANCH   8   9
ATOM      9  C   LIG    1       53.012  64.101  35.510  0.00  0.00    +0.242 C 
ATOM     10  O   LIG    1       53.183  64.541  36.646  0.00  0.00    -0.273 OA
ATOM     11  N   LIG    1       52.478  64.816  34.510  0.00  0.00    -0.268 N 
ATOM     12  C   LIG    1       52.296  64.221  33.179  0.00  0.00    +0.106 C 
ATOM     13  C   LIG    1       51.686  65.218  32.188  0.00  0.00    +0.081 C 
ATOM     14  S   LIG    1       51.008  66.455  33.190  0.00  0.00    -0.117 S 
ATOM     15  C   LIG    1       52.022  66.207  34.623  0.00  0.00    +0.152 C 
ENDBRANCH   8   9
ENDBRANCH   5   6
TORSDOF 4
ENDMDL
