MODEL 1
REMARK VINA RESULT:    -8.486      0.000      0.000
REMARK INTER + INTRA:         -11.169
REMARK INTER:                 -10.471
REMARK INTRA:                  -0.698
REMARK UNBOUND:                -0.698
REMARK  Name = ligand_1
REMARK                            x       y       z     vdW  Elec       q    Type
REMARK                         _______ _______ _______ _____ _____    ______ ____
ROOT
ATOM      2  N   LIG    1       50.229  61.922  38.292  0.00  0.00    -0.305 N 
ATOM      3  C   LIG    1       50.398  63.275  38.814  0.00  0.00    +0.108 C 
ATOM      4  C   LIG    1       51.625  63.914  38.156  0.00  0.00    +0.094 C 
ATOM      5  N   LIG    1       51.523  63.813  36.692  0.00  0.00    -0.270 NA
ATOM     18  C   LIG    1       51.338  62.464  36.175  0.00  0.00    +0.094 C 
ATOM     19  C   LIG    1       50.111  61.833  36.829  0.00  0.00    +0.108 C 
ENDROOT
BRANCH   2   1
ATOM      1  C   LIG    1       49.386  61.045  39.062  0.00  0.00    +0.051 A 
ATOM     20  C   LIG    1       49.899  59.953  39.801  0.00  0.00    +0.031 A 
ATOM     21  C   LIG    1       51.240  59.585  39.731  0.00  0.00    +0.003 A 
ATOM     22  C   LIG    1       51.718  58.503  40.465  0.00  0.00    +0.000 A 
ATOM     23  C   LIG    1       50.864  57.761  41.282  0.00  0.00    +0.002 A 
ATOM     24  C   LIG    1       49.522  58.116  41.366  0.00  0.00    +0.019 A 
ATOM     25  C   LIG    1       49.049  59.200  40.633  0.00  0.00    +0.082 A 
ATOM     26  N   LIG    1       47.744  59.503  40.727  0.00  0.00    -0.241 NA
ATOM     27  C   LIG    1       47.211  60.532  40.035  0.00  0.00    +0.154 A 
ATOM     32  C   LIG    1       48.017  61.328  39.206  0.00  0.00    +0.038 A 
BRANCH  27  28
ATOM     28  C   LIG    1       45.742  60.752  40.274  0.00  0.00    +0.435 C 
ATOM     29  F   LIG    1       45.363  60.011  41.295  0.00  0.00    -0.164 F 
ATOM     30  F   LIG    1       44.975  60.531  39.223  0.00  0.00    -0.164 F 
ATOM     31  F   LIG    1       45.608  62.012  40.629  0.00  0.00    -0.164 F 
ENDBRANCH  27  28
ENDBRANCH   2   1
BRANCH   5   6
ATOM      6  C   LIG    1       52.731  64.405  36.054  0.00  0.00    +0.077 C 
ATOM      7  C   LIG    1       54.007  64.191  36.883  0.00  0.00    +0.044 C 
ATOM      8  C   LIG    1       55.144  64.229  35.862  0.00  0.00    +0.150 C 
ATOM     16  N   LIG    1       54.519  63.803  34.614  0.00  0.00    -0.209 NA
ATOM     17  C   LIG    1       53.069  63.717  34.721  0.00  0.00    +0.105 C 
BRANCH   8   9
ATOM      9  C   LIG    1       56.342  63.389  36.263  0.00  0.00    +0.242 C 
ATOM     10  O   LIG    1       56.515  62.291  35.735  0.00  0.00    -0.273 OA
ATOM     11  N   LIG    1       57.186  63.924  37.156  0.00  0.00    -0.268 N 
ATOM     12  C   LIG    1       56.909  65.238  37.752  0.00  0.00    +0.106 C 
ATOM     13  C   LIG    1       58.010  65.662  38.729  0.00  0.00    +0.081 C 
ATOM     14  S   LIG    1       58.849  64.193  39.092  0.00  0.00    -0.117 S 
ATOM     15  C   LIG    1       58.422  63.287  37.629  0.00  0.00    +0.152 C 
ENDBRANCH   8   9
ENDBRANCH   5   6
TORSDOF 4
ENDMDL
MODEL 2
REMARK VINA RESULT:    -8.092      5.447      9.880
REMARK INTER + INTRA:         -10.683
REMARK INTER:                  -9.852
REMARK INTRA:                  -0.831
REMARK UNBOUND:                -0.698
REMARK  Name = ligand_1
REMARK                            x       y       z     vdW  Elec       q    Type
REMARK                         _______ _______ _______ _____ _____    ______ ____
ROOT
ATOM      2  N   LIG    1       51.184  62.610  37.415  0.00  0.00    -0.305 N 
ATOM      3  C   LIG    1       50.812  63.325  38.633  0.00  0.00    +0.108 C 
ATOM      4  C   LIG    1       49.631  62.605  39.293  0.00  0.00    +0.094 C 
ATOM      5  N   LIG    1       49.946  61.180  39.473  0.00  0.00    -0.270 NA
ATOM     18  C   LIG    1       50.333  60.472  38.260  0.00  0.00    +0.094 C 
ATOM     19  C   LIG    1       51.513  61.190  37.608  0.00  0.00    +0.108 C 
ENDROOT
BRANCH   2   1
ATOM      1  C   LIG    1       51.993  63.338  36.474  0.00  0.00    +0.051 A 
ATOM     20  C   LIG    1       51.442  64.005  35.355  0.00  0.00    +0.031 A 
ATOM     21  C   LIG    1       50.093  63.897  35.027  0.00  0.00    +0.003 A 
ATOM     22  C   LIG    1       49.578  64.561  33.917  0.00  0.00    +0.000 A 
ATOM     23  C   LIG    1       50.401  65.345  33.107  0.00  0.00    +0.002 A 
ATOM     24  C   LIG    1       51.750  65.466  33.421  0.00  0.00    +0.019 A 
ATOM     25  C   LIG    1       52.260  64.803  34.533  0.00  0.00    +0.082 A 
ATOM     26  N   LIG    1       53.572  64.931  34.796  0.00  0.00    -0.241 NA
ATOM     27  C   LIG    1       54.140  64.307  35.848  0.00  0.00    +0.154 A 
ATOM     32  C   LIG    1       53.367  63.515  36.712  0.00  0.00    +0.038 A 
BRANCH  27  28
ATOM     28  C   LIG    1       55.611  64.576  36.016  0.00  0.00    +0.435 C 
ATOM     29  F   LIG    1       55.852  64.833  37.286  0.00  0.00    -0.164 F 
ATOM     30  F   LIG    1       56.085  65.537  35.245  0.00  0.00    -0.164 F 
ATOM     31  F   LIG    1       56.232  63.456  35.714  0.00  0.00    -0.164 F 
ENDBRANCH  27  28
ENDBRANCH   2   1
BRANCH   5   6
ATOM      6  C   LIG    1       48.786  60.474  40.085  0.00  0.00    +0.077 C 
ATOM      7  C   LIG    1       48.532  59.094  39.459  0.00  0.00    +0.044 C 
ATOM      8  C   LIG    1       47.833  58.293  40.557  0.00  0.00    +0.150 C 
ATOM     16  N   LIG    1       48.295  58.906  41.797  0.00  0.00    -0.209 NA
ATOM     17  C   LIG    1       49.037  60.138  41.565  0.00  0.00    +0.105 C 
BRANCH   8   9
ATOM      9  C   LIG    1       48.099  56.801  40.477  0.00  0.00    +0.242 C 
ATOM     10  O   LIG    1       49.158  56.351  40.912  0.00  0.00    -0.273 OA
ATOM     11  N   LIG    1       47.123  56.038  39.966  0.00  0.00    -0.268 N 
ATOM     12  C   LIG    1       45.887  56.647  39.456  0.00  0.00    +0.106 C 
ATOM     13  C   LIG    1       44.905  55.591  38.937  0.00  0.00    +0.081 C 
ATOM     14  S   LIG    1       45.877  54.178  38.710  0.00  0.00    -0.117 S 
ATOM     15  C   LIG    1       47.175  54.574  39.851  0.00  0.00    +0.152 C 
ENDBRANCH   8   9
ENDBRANCH   5   6
TORSDOF 4
ENDMDL
MODEL 3
REMARK VINA RESULT:    -7.859      1.928      3.127
REMARK INTER + INTRA:         -10.394
REMARK INTER:                 -10.447
REMARK INTRA:                   0.052
REMARK UNBOUND:                -0.698
REMARK  Name = ligand_1
REMARK                            x       y       z     vdW  Elec       q    Type
REMARK                         _______ _______ _______ _____ _____    ______ ____
ROOT
ATOM      2  N   LIG    1       50.562  61.715  38.726  0.00  0.00    -0.305 N 
ATOM      3  C   LIG    1       50.440  63.149  38.972  0.00  0.00    +0.108 C 
ATOM      4  C   LIG    1       51.592  63.875  38.271  0.00  0.00    +0.094 C 
ATOM      5  N   LIG    1       51.647  63.484  36.854  0.00  0.00    -0.270 NA
ATOM     18  C   LIG    1       51.752  62.051  36.610  0.00  0.00    +0.094 C 
ATOM     19  C   LIG    1       50.599  61.332  37.307  0.00  0.00    +0.108 C 
ENDROOT
BRANCH   2   1
ATOM      1  C   LIG    1       49.818  60.854  39.607  0.00  0.00    +0.051 A 
ATOM     20  C   LIG    1       48.424  60.990  39.806  0.00  0.00    +0.031 A 
ATOM     21  C   LIG    1       47.705  62.048  39.255  0.00  0.00    +0.003 A 
ATOM     22  C   LIG    1       46.335  62.162  39.470  0.00  0.00    +0.000 A 
ATOM     23  C   LIG    1       45.652  61.224  40.246  0.00  0.00    +0.002 A 
ATOM     24  C   LIG    1       46.355  60.160  40.803  0.00  0.00    +0.019 A 
ATOM     25  C   LIG    1       47.724  60.048  40.582  0.00  0.00    +0.082 A 
ATOM     26  N   LIG    1       48.371  59.016  41.149  0.00  0.00    -0.241 NA
ATOM     27  C   LIG    1       49.701  58.850  40.991  0.00  0.00    +0.154 A 
ATOM     32  C   LIG    1       50.445  59.749  40.211  0.00  0.00    +0.038 A 
BRANCH  27  28
ATOM     28  C   LIG    1       50.264  57.631  41.668  0.00  0.00    +0.435 C 
ATOM     29  F   LIG    1       49.287  57.003  42.291  0.00  0.00    -0.164 F 
ATOM     30  F   LIG    1       51.265  57.873  42.493  0.00  0.00    -0.164 F 
ATOM     31  F   LIG    1       50.696  56.839  40.711  0.00  0.00    -0.164 F 
ENDBRANCH  27  28
ENDBRANCH   2   1
BRANCH   5   6
ATOM      6  C   LIG    1       52.788  64.165  36.180  0.00  0.00    +0.077 C 
ATOM      7  C   LIG    1       54.104  64.034  36.961  0.00  0.00    +0.044 C 
ATOM      8  C   LIG    1       55.198  64.161  35.901  0.00  0.00    +0.150 C 
ATOM     16  N   LIG    1       54.560  63.704  34.672  0.00  0.00    -0.209 NA
ATOM     17  C   LIG    1       53.124  63.514  34.829  0.00  0.00    +0.105 C 
BRANCH   8   9
ATOM      9  C   LIG    1       56.466  63.404  36.250  0.00  0.00    +0.242 C 
ATOM     10  O   LIG    1       56.719  62.348  35.671  0.00  0.00    -0.273 OA
ATOM     11  N   LIG    1       57.277  63.965  37.156  0.00  0.00    -0.268 N 
ATOM     12  C   LIG    1       56.905  65.225  37.814  0.00  0.00    +0.106 C 
ATOM     13  C   LIG    1       57.983  65.693  38.797  0.00  0.00    +0.081 C 
ATOM     14  S   LIG    1       58.943  64.282  39.084  0.00  0.00    -0.117 S 
ATOM     15  C   LIG    1       58.568  63.410  37.586  0.00  0.00    +0.152 C 
ENDBRANCH   8   9
ENDBRANCH   5   6
TORSDOF 4
ENDMDL
MODEL 4
REMARK VINA RESULT:    -7.793      9.370     12.213
REMARK INTER + INTRA:         -10.313
REMARK INTER:                  -9.878
REMARK INTRA:                  -0.435
REMARK UNBOUND:                -0.698
REMARK  Name = ligand_1
REMARK                            x       y       z     vdW  Elec       q    Type
REMARK                         _______ _______ _______ _____ _____    ______ ____
ROOT
ATOM      2  N   LIG    1       56.779  55.556  34.171  0.00  0.00    -0.305 N 
ATOM      3  C   LIG    1       57.078  56.554  35.194  0.00  0.00    +0.108 C 
ATOM      4  C   LIG    1       56.046  56.438  36.321  0.00  0.00    +0.094 C 
ATOM      5  N   LIG    1       55.976  55.049  36.800  0.00  0.00    -0.270 NA
ATOM     18  C   LIG    1       55.693  54.053  35.775  0.00  0.00    +0.094 C 
ATOM     19  C   LIG    1       56.727  54.169  34.657  0.00  0.00    +0.108 C 
ENDROOT
BRANCH   2   1
ATOM      1  C   LIG    1       57.384  55.766  32.883  0.00  0.00    +0.051 A 
ATOM     20  C   LIG    1       56.881  55.173  31.702  0.00  0.00    +0.031 A 
ATOM     21  C   LIG    1       55.840  54.249  31.730  0.00  0.00    +0.003 A 
ATOM     22  C   LIG    1       55.367  53.676  30.553  0.00  0.00    +0.000 A 
ATOM     23  C   LIG    1       55.928  54.010  29.319  0.00  0.00    +0.002 A 
ATOM     24  C   LIG    1       56.967  54.934  29.272  0.00  0.00    +0.019 A 
ATOM     25  C   LIG    1       57.435  55.505  30.451  0.00  0.00    +0.082 A 
ATOM     26  N   LIG    1       58.450  56.382  30.366  0.00  0.00    -0.241 NA
ATOM     27  C   LIG    1       58.965  56.966  31.468  0.00  0.00    +0.154 A 
ATOM     32  C   LIG    1       58.438  56.685  32.739  0.00  0.00    +0.038 A 
BRANCH  27  28
ATOM     28  C   LIG    1       60.079  57.940  31.197  0.00  0.00    +0.435 C 
ATOM     29  F   LIG    1       61.231  57.329  31.384  0.00  0.00    -0.164 F 
ATOM     30  F   LIG    1       60.019  59.054  31.903  0.00  0.00    -0.164 F 
ATOM     31  F   LIG    1       59.999  58.252  29.921  0.00  0.00    -0.164 F 
ENDBRANCH  27  28
ENDBRANCH   2   1
BRANCH   5   6
ATOM      6  C   LIG    1       54.949  54.931  37.873  0.00  0.00    +0.077 C 
ATOM      7  C   LIG    1       55.541  55.087  39.282  0.00  0.00    +0.044 C 
ATOM      8  C   LIG    1       54.379  55.595  40.137  0.00  0.00    +0.150 C 
ATOM     16  N   LIG    1       53.514  56.287  39.188  0.00  0.00    -0.209 NA
ATOM     17  C   LIG    1       53.918  56.069  37.806  0.00  0.00    +0.105 C 
BRANCH   8   9
ATOM      9  C   LIG    1       54.821  56.459  41.303  0.00  0.00    +0.242 C 
ATOM     10  O   LIG    1       55.281  57.580  41.086  0.00  0.00    -0.273 OA
ATOM     11  N   LIG    1       54.638  55.958  42.532  0.00  0.00    -0.268 N 
ATOM     12  C   LIG    1       54.091  54.607  42.714  0.00  0.00    +0.106 C 
ATOM     13  C   LIG    1       53.949  54.246  44.197  0.00  0.00    +0.081 C 
ATOM     14  S   LIG    1       54.963  55.386  45.013  0.00  0.00    -0.117 S 
ATOM     15  C   LIG    1       54.956  56.661  43.782  0.00  0.00    +0.152 C 
ENDBRANCH   8   9
ENDBRANCH   5   6
TORSDOF 4
ENDMDL
MODEL 5
REMARK VINA RESULT:    -7.724      4.966      9.275
REMARK INTER + INTRA:         -10.228
REMARK INTER:                  -9.899
REMARK INTRA:                  -0.329
REMARK UNBOUND:                -0.698
REMARK  Name = ligand_1
REMARK                            x       y       z     vdW  Elec       q    Type
REMARK                         _______ _______ _______ _____ _____    ______ ____
ROOT
ATOM      2  N   LIG    1       51.032  62.356  37.129  0.00  0.00    -0.305 N 
ATOM      3  C   LIG    1       50.208  61.330  36.496  0.00  0.00    +0.108 C 
ATOM      4  C   LIG    1       49.757  60.325  37.562  0.00  0.00    +0.094 C 
ATOM      5  N   LIG    1       49.127  61.031  38.687  0.00  0.00    -0.270 NA
ATOM     18  C   LIG    1       49.944  62.066  39.306  0.00  0.00    +0.094 C 
ATOM     19  C   LIG    1       50.386  63.068  38.242  0.00  0.00    +0.108 C 
ENDROOT
BRANCH   2   1
ATOM      1  C   LIG    1       51.851  63.145  36.248  0.00  0.00    +0.051 A 
ATOM     20  C   LIG    1       51.313  63.890  35.173  0.00  0.00    +0.031 A 
ATOM     21  C   LIG    1       49.967  63.809  34.825  0.00  0.00    +0.003 A 
ATOM     22  C   LIG    1       49.464  64.549  33.759  0.00  0.00    +0.000 A 
ATOM     23  C   LIG    1       50.296  65.385  33.013  0.00  0.00    +0.002 A 
ATOM     24  C   LIG    1       51.643  65.480  33.348  0.00  0.00    +0.019 A 
ATOM     25  C   LIG    1       52.141  64.740  34.416  0.00  0.00    +0.082 A 
ATOM     26  N   LIG    1       53.450  64.847  34.699  0.00  0.00    -0.241 NA
ATOM     27  C   LIG    1       54.007  64.149  35.711  0.00  0.00    +0.154 A 
ATOM     32  C   LIG    1       53.223  63.301  36.511  0.00  0.00    +0.038 A 
BRANCH  27  28
ATOM     28  C   LIG    1       55.476  64.402  35.912  0.00  0.00    +0.435 C 
ATOM     29  F   LIG    1       55.791  65.544  35.334  0.00  0.00    -0.164 F 
ATOM     30  F   LIG    1       56.264  63.431  35.491  0.00  0.00    -0.164 F 
ATOM     31  F   LIG    1       55.655  64.552  37.207  0.00  0.00    -0.164 F 
ENDBRANCH  27  28
ENDBRANCH   2   1
BRANCH   5   6
ATOM      6  C   LIG    1       48.718  60.057  39.738  0.00  0.00    +0.077 C 
ATOM      7  C   LIG    1       49.521  58.748  39.678  0.00  0.00    +0.044 C 
ATOM      8  C   LIG    1       49.477  58.202  41.105  0.00  0.00    +0.150 C 
ATOM     16  N   LIG    1       49.304  59.387  41.937  0.00  0.00    -0.209 NA
ATOM     17  C   LIG    1       49.020  60.581  41.151  0.00  0.00    +0.105 C 
BRANCH   8   9
ATOM      9  C   LIG    1       50.694  57.373  41.471  0.00  0.00    +0.242 C 
ATOM     10  O   LIG    1       51.819  57.846  41.313  0.00  0.00    -0.273 OA
ATOM     11  N   LIG    1       50.466  56.162  41.999  0.00  0.00    -0.268 N 
ATOM     12  C   LIG    1       49.095  55.658  42.149  0.00  0.00    +0.106 C 
ATOM     13  C   LIG    1       49.067  54.266  42.789  0.00  0.00    +0.081 C 
ATOM     14  S   LIG    1       50.682  53.675  42.597  0.00  0.00    -0.117 S 
ATOM     15  C   LIG    1       51.510  55.236  42.458  0.00  0.00    +0.152 C 
ENDBRANCH   8   9
ENDBRANCH   5   6
TORSDOF 4
ENDMDL
MODEL 6
REMARK VINA RESULT:    -7.658      6.613      9.347
REMARK INTER + INTRA:         -10.146
REMARK INTER:                  -9.192
REMARK INTRA:                  -0.954
REMARK UNBOUND:                -0.698
REMARK  Name = ligand_1
REMARK                            x       y       z     vdW  Elec       q    Type
REMARK                         _______ _______ _______ _____ _____    ______ ____
ROOT
ATOM      2  N   LIG    1       52.388  63.252  35.593  0.00  0.00    -0.305 N 
ATOM      3  C   LIG    1       52.460  64.136  34.433  0.00  0.00    +0.108 C 
ATOM      4  C   LIG    1       51.154  64.025  33.639  0.00  0.00    +0.094 C 
ATOM      5  N   LIG    1       50.003  64.248  34.528  0.00  0.00    -0.270 NA
ATOM     18  C   LIG    1       49.942  63.377  35.694  0.00  0.00    +0.094 C 
ATOM     19  C   LIG    1       51.244  63.494  36.484  0.00  0.00    +0.108 C 
ENDROOT
BRANCH   2   1
ATOM      1  C   LIG    1       53.640  62.930  36.224  0.00  0.00    +0.051 A 
ATOM     20  C   LIG    1       54.100  61.600  36.365  0.00  0.00    +0.031 A 
ATOM     21  C   LIG    1       53.310  60.509  36.010  0.00  0.00    +0.003 A 
ATOM     22  C   LIG    1       53.785  59.210  36.163  0.00  0.00    +0.000 A 
ATOM     23  C   LIG    1       55.059  58.970  36.680  0.00  0.00    +0.002 A 
ATOM     24  C   LIG    1       55.863  60.048  37.037  0.00  0.00    +0.019 A 
ATOM     25  C   LIG    1       55.385  61.345  36.880  0.00  0.00    +0.082 A 
ATOM     26  N   LIG    1       56.184  62.360  37.251  0.00  0.00    -0.241 NA
ATOM     27  C   LIG    1       55.783  63.643  37.140  0.00  0.00    +0.154 A 
ATOM     32  C   LIG    1       54.519  63.955  36.615  0.00  0.00    +0.038 A 
BRANCH  27  28
ATOM     28  C   LIG    1       56.806  64.657  37.574  0.00  0.00    +0.435 C 
ATOM     29  F   LIG    1       56.671  65.739  36.834  0.00  0.00    -0.164 F 
ATOM     30  F   LIG    1       58.053  64.226  37.550  0.00  0.00    -0.164 F 
ATOM     31  F   LIG    1       56.504  64.986  38.813  0.00  0.00    -0.164 F 
ENDBRANCH  27  28
ENDBRANCH   2   1
BRANCH   5   6
ATOM      6  C   LIG    1       48.732  64.108  33.763  0.00  0.00    +0.077 C 
ATOM      7  C   LIG    1       48.953  63.596  32.332  0.00  0.00    +0.044 C 
ATOM      8  C   LIG    1       47.641  62.906  31.960  0.00  0.00    +0.150 C 
ATOM     16  N   LIG    1       47.083  62.485  33.241  0.00  0.00    -0.209 NA
ATOM     17  C   LIG    1       47.814  63.037  34.373  0.00  0.00    +0.105 C 
BRANCH   8   9
ATOM      9  C   LIG    1       47.816  61.771  30.968  0.00  0.00    +0.242 C 
ATOM     10  O   LIG    1       48.725  60.958  31.132  0.00  0.00    -0.273 OA
ATOM     11  N   LIG    1       46.922  61.693  29.973  0.00  0.00    -0.268 N 
ATOM     12  C   LIG    1       45.868  62.707  29.834  0.00  0.00    +0.106 C 
ATOM     13  C   LIG    1       44.949  62.413  28.643  0.00  0.00    +0.081 C 
ATOM     14  S   LIG    1       45.849  61.296  27.675  0.00  0.00    -0.117 S 
ATOM     15  C   LIG    1       46.897  60.642  28.947  0.00  0.00    +0.152 C 
ENDBRANCH   8   9
ENDBRANCH   5   6
TORSDOF 4
ENDMDL
MODEL 7
REMARK VINA RESULT:    -7.618      4.561      8.744
REMARK INTER + INTRA:         -10.097
REMARK INTER:                  -9.419
REMARK INTRA:                  -0.677
REMARK UNBOUND:                -0.698
REMARK  Name = ligand_1
REMARK                            x       y       z     vdW  Elec       q    Type
REMARK                         _______ _______ _______ _____ _____    ______ ____
ROOT
ATOM      2  N   LIG    1       50.830  62.970  36.719  0.00  0.00    -0.305 N 
ATOM      3  C   LIG    1       49.535  62.478  36.258  0.00  0.00    +0.108 C 
ATOM      4  C   LIG    1       49.109  61.295  37.134  0.00  0.00    +0.094 C 
ATOM      5  N   LIG    1       49.168  61.673  38.555  0.00  0.00    -0.270 NA
ATOM     18  C   LIG    1       50.456  62.179  39.009  0.00  0.00    +0.094 C 
ATOM     19  C   LIG    1       50.874  63.360  38.136  0.00  0.00    +0.108 C 
ENDROOT
BRANCH   2   1
ATOM      1  C   LIG    1       51.559  63.801  35.798  0.00  0.00    +0.051 A 
ATOM     20  C   LIG    1       52.970  63.783  35.711  0.00  0.00    +0.031 A 
ATOM     21  C   LIG    1       53.751  63.046  36.599  0.00  0.00    +0.003 A 
ATOM     22  C   LIG    1       55.138  63.049  36.494  0.00  0.00    +0.000 A 
ATOM     23  C   LIG    1       55.779  63.793  35.502  0.00  0.00    +0.002 A 
ATOM     24  C   LIG    1       55.015  64.533  34.605  0.00  0.00    +0.019 A 
ATOM     25  C   LIG    1       53.628  64.524  34.712  0.00  0.00    +0.082 A 
ATOM     26  N   LIG    1       52.924  65.263  33.837  0.00  0.00    -0.241 NA
ATOM     27  C   LIG    1       51.577  65.315  33.888  0.00  0.00    +0.154 A 
ATOM     32  C   LIG    1       50.869  64.579  34.852  0.00  0.00    +0.038 A 
BRANCH  27  28
ATOM     28  C   LIG    1       50.943  66.166  32.822  0.00  0.00    +0.435 C 
ATOM     29  F   LIG    1       50.999  67.428  33.198  0.00  0.00    -0.164 F 
ATOM     30  F   LIG    1       49.707  65.825  32.508  0.00  0.00    -0.164 F 
ATOM     31  F   LIG    1       51.694  66.040  31.748  0.00  0.00    -0.164 F 
ENDBRANCH  27  28
ENDBRANCH   2   1
BRANCH   5   6
ATOM      6  C   LIG    1       48.785  60.513  39.408  0.00  0.00    +0.077 C 
ATOM      7  C   LIG    1       49.725  59.310  39.232  0.00  0.00    +0.044 C 
ATOM      8  C   LIG    1       49.629  58.547  40.553  0.00  0.00    +0.150 C 
ATOM     16  N   LIG    1       49.265  59.567  41.530  0.00  0.00    -0.209 NA
ATOM     17  C   LIG    1       48.918  60.836  40.905  0.00  0.00    +0.105 C 
BRANCH   8   9
ATOM      9  C   LIG    1       50.895  57.789  40.904  0.00  0.00    +0.242 C 
ATOM     10  O   LIG    1       51.990  58.275  40.623  0.00  0.00    -0.273 OA
ATOM     11  N   LIG    1       50.745  56.628  41.557  0.00  0.00    -0.268 N 
ATOM     12  C   LIG    1       49.405  56.104  41.851  0.00  0.00    +0.106 C 
ATOM     13  C   LIG    1       49.468  54.779  42.617  0.00  0.00    +0.081 C 
ATOM     14  S   LIG    1       51.084  54.215  42.365  0.00  0.00    -0.117 S 
ATOM     15  C   LIG    1       51.849  55.778  42.024  0.00  0.00    +0.152 C 
ENDBRANCH   8   9
ENDBRANCH   5   6
TORSDOF 4
ENDMDL
MODEL 8
REMARK VINA RESULT:    -7.533      5.280      7.027
REMARK INTER + INTRA:          -9.993
REMARK INTER:                  -9.496
REMARK INTRA:                  -0.497
REMARK UNBOUND:                -0.698
REMARK  Name = ligand_1
REMARK                            x       y       z     vdW  Elec       q    Type
REMARK                         _______ _______ _______ _____ _____    ______ ____
ROOT
ATOM      2  N   LIG    1       53.610  57.987  38.745  0.00  0.00    -0.305 N 
ATOM      3  C   LIG    1       54.624  58.946  38.317  0.00  0.00    +0.108 C 
ATOM      4  C   LIG    1       54.145  59.645  37.041  0.00  0.00    +0.094 C 
ATOM      5  N   LIG    1       52.800  60.204  37.247  0.00  0.00    -0.270 NA
ATOM     18  C   LIG    1       51.792  59.249  37.689  0.00  0.00    +0.094 C 
ATOM     19  C   LIG    1       52.273  58.558  38.964  0.00  0.00    +0.108 C 
ENDROOT
BRANCH   2   1
ATOM      1  C   LIG    1       54.041  56.979  39.676  0.00  0.00    +0.051 A 
ATOM     20  C   LIG    1       54.847  55.883  39.291  0.00  0.00    +0.031 A 
ATOM     21  C   LIG    1       55.173  55.644  37.958  0.00  0.00    +0.003 A 
ATOM     22  C   LIG    1       55.964  54.555  37.605  0.00  0.00    +0.000 A 
ATOM     23  C   LIG    1       56.445  53.675  38.576  0.00  0.00    +0.002 A 
ATOM     24  C   LIG    1       56.131  53.899  39.913  0.00  0.00    +0.019 A 
ATOM     25  C   LIG    1       55.342  54.991  40.261  0.00  0.00    +0.082 A 
ATOM     26  N   LIG    1       55.047  55.166  41.561  0.00  0.00    -0.241 NA
ATOM     27  C   LIG    1       54.276  56.194  41.972  0.00  0.00    +0.154 A 
ATOM     32  C   LIG    1       53.773  57.124  41.049  0.00  0.00    +0.038 A 
BRANCH  27  28
ATOM     28  C   LIG    1       54.065  56.261  43.460  0.00  0.00    +0.435 C 
ATOM     29  F   LIG    1       54.238  55.057  43.967  0.00  0.00    -0.164 F 
ATOM     30  F   LIG    1       52.900  56.760  43.828  0.00  0.00    -0.164 F 
ATOM     31  F   LIG    1       55.018  57.032  43.938  0.00  0.00    -0.164 F 
ENDBRANCH  27  28
ENDBRANCH   2   1
BRANCH   5   6
ATOM      6  C   LIG    1       52.320  60.854  35.996  0.00  0.00    +0.077 C 
ATOM      7  C   LIG    1       51.642  62.209  36.252  0.00  0.00    +0.044 C 
ATOM      8  C   LIG    1       51.825  62.987  34.949  0.00  0.00    +0.150 C 
ATOM     16  N   LIG    1       53.031  62.418  34.359  0.00  0.00    -0.209 NA
ATOM     17  C   LIG    1       53.484  61.224  35.061  0.00  0.00    +0.105 C 
BRANCH   8   9
ATOM      9  C   LIG    1       51.893  64.489  35.149  0.00  0.00    +0.242 C 
ATOM     10  O   LIG    1       52.228  64.941  36.244  0.00  0.00    -0.273 OA
ATOM     11  N   LIG    1       51.624  65.255  34.083  0.00  0.00    -0.268 N 
ATOM     12  C   LIG    1       51.221  64.646  32.808  0.00  0.00    +0.106 C 
ATOM     13  C   LIG    1       50.980  65.702  31.724  0.00  0.00    +0.081 C 
ATOM     14  S   LIG    1       50.795  67.182  32.602  0.00  0.00    -0.117 S 
ATOM     15  C   LIG    1       51.685  66.723  34.066  0.00  0.00    +0.152 C 
ENDBRANCH   8   9
ENDBRANCH   5   6
TORSDOF 4
ENDMDL
MODEL 9
REMARK VINA RESULT:    -7.287      5.702      7.573
REMARK INTER + INTRA:          -9.688
REMARK INTER:                  -9.303
REMARK INTRA:                  -0.386
REMARK UNBOUND:                -0.698
REMARK  Name = ligand_1
REMARK                            x       y       z     vdW  Elec       q    Type
REMARK                         _______ _______ _______ _____ _____    ______ ____
ROOT
ATOM      2  N   LIG    1       54.566  58.443  38.050  0.00  0.00    -0.305 N 
ATOM      3  C   LIG    1       53.515  58.275  37.051  0.00  0.00    +0.108 C 
ATOM      4  C   LIG    1       53.099  59.655  36.528  0.00  0.00    +0.094 C 
ATOM      5  N   LIG    1       54.284  60.400  36.075  0.00  0.00    -0.270 NA
ATOM     18  C   LIG    1       55.339  60.552  37.068  0.00  0.00    +0.094 C 
ATOM     19  C   LIG    1       55.753  59.175  37.582  0.00  0.00    +0.108 C 
ENDROOT
BRANCH   2   1
ATOM      1  C   LIG    1       54.802  57.320  38.918  0.00  0.00    +0.051 A 
ATOM     20  C   LIG    1       55.537  56.183  38.508  0.00  0.00    +0.031 A 
ATOM     21  C   LIG    1       55.974  56.026  37.195  0.00  0.00    +0.003 A 
ATOM     22  C   LIG    1       56.691  54.895  36.816  0.00  0.00    +0.000 A 
ATOM     23  C   LIG    1       56.984  53.891  37.740  0.00  0.00    +0.002 A 
ATOM     24  C   LIG    1       56.557  54.032  39.057  0.00  0.00    +0.019 A 
ATOM     25  C   LIG    1       55.843  55.166  39.432  0.00  0.00    +0.082 A 
ATOM     26  N   LIG    1       55.434  55.259  40.708  0.00  0.00    -0.241 NA
ATOM     27  C   LIG    1       54.725  56.323  41.141  0.00  0.00    +0.154 A 
ATOM     32  C   LIG    1       54.409  57.375  40.267  0.00  0.00    +0.038 A 
BRANCH  27  28
ATOM     28  C   LIG    1       54.369  56.284  42.602  0.00  0.00    +0.435 C 
ATOM     29  F   LIG    1       53.089  56.569  42.734  0.00  0.00    -0.164 F 
ATOM     30  F   LIG    1       55.105  57.067  43.368  0.00  0.00    -0.164 F 
ATOM     31  F   LIG    1       54.539  55.040  42.995  0.00  0.00    -0.164 F 
ENDBRANCH  27  28
ENDBRANCH   2   1
BRANCH   5   6
ATOM      6  C   LIG    1       53.883  61.753  35.597  0.00  0.00    +0.077 C 
ATOM      7  C   LIG    1       52.591  61.732  34.766  0.00  0.00    +0.044 C 
ATOM      8  C   LIG    1       51.998  63.131  34.936  0.00  0.00    +0.150 C 
ATOM     16  N   LIG    1       52.509  63.582  36.226  0.00  0.00    -0.209 NA
ATOM     17  C   LIG    1       53.526  62.689  36.764  0.00  0.00    +0.105 C 
BRANCH   8   9
ATOM      9  C   LIG    1       50.485  63.161  34.834  0.00  0.00    +0.242 C 
ATOM     10  O   LIG    1       49.812  62.486  35.612  0.00  0.00    -0.273 OA
ATOM     11  N   LIG    1       49.956  63.975  33.911  0.00  0.00    -0.268 N 
ATOM     12  C   LIG    1       50.823  64.746  33.009  0.00  0.00    +0.106 C 
ATOM     13  C   LIG    1       50.010  65.621  32.049  0.00  0.00    +0.081 C 
ATOM     14  S   LIG    1       48.417  64.946  32.100  0.00  0.00    -0.117 S 
ATOM     15  C   LIG    1       48.517  64.177  33.694  0.00  0.00    +0.152 C 
ENDBRANCH   8   9
ENDBRANCH   5   6
TORSDOF 4
ENDMDL
