MODEL 1
REMARK VINA RESULT:    -8.459      0.000      0.000
REMARK INTER + INTRA:         -11.124
REMARK INTER:                 -10.437
REMARK INTRA:                  -0.687
REMARK UNBOUND:                -0.687
REMARK  Name = ligand_1
REMARK                            x       y       z     vdW  Elec       q    Type
REMARK                         _______ _______ _______ _____ _____    ______ ____
ROOT
ATOM      2  N   LIG    1       50.186  61.926  38.323  0.00  0.00    -0.305 N 
ATOM      3  C   LIG    1       50.385  63.278  38.837  0.00  0.00    +0.108 C 
ATOM      4  C   LIG    1       51.610  63.896  38.155  0.00  0.00    +0.094 C 
ATOM      5  N   LIG    1       51.480  63.793  36.693  0.00  0.00    -0.270 NA
ATOM     18  C   LIG    1       51.265  62.445  36.183  0.00  0.00    +0.094 C 
ATOM     19  C   LIG    1       50.040  61.835  36.862  0.00  0.00    +0.108 C 
ENDROOT
BRANCH   2   1
ATOM      1  C   LIG    1       49.345  61.064  39.110  0.00  0.00    +0.051 A 
ATOM     20  C   LIG    1       49.858  59.987  39.869  0.00  0.00    +0.031 A 
ATOM     21  C   LIG    1       51.199  59.617  39.805  0.00  0.00    +0.003 A 
ATOM     22  C   LIG    1       51.677  58.550  40.559  0.00  0.00    +0.000 A 
ATOM     23  C   LIG    1       50.824  57.823  41.392  0.00  0.00    +0.002 A 
ATOM     24  C   LIG    1       49.482  58.180  41.470  0.00  0.00    +0.019 A 
ATOM     25  C   LIG    1       49.009  59.250  40.716  0.00  0.00    +0.082 A 
ATOM     26  N   LIG    1       47.703  59.556  40.807  0.00  0.00    -0.241 NA
ATOM     27  C   LIG    1       47.170  60.571  40.095  0.00  0.00    +0.154 A 
ATOM     32  C   LIG    1       47.975  61.350  39.250  0.00  0.00    +0.038 A 
BRANCH  27  28
ATOM     28  C   LIG    1       45.702  60.796  40.332  0.00  0.00    +0.435 C 
ATOM     29  F   LIG    1       45.068  60.698  39.180  0.00  0.00    -0.164 F 
ATOM     30  F   LIG    1       45.410  61.935  40.932  0.00  0.00    -0.164 F 
ATOM     31  F   LIG    1       45.291  59.807  41.095  0.00  0.00    -0.164 F 
ENDBRANCH  27  28
ENDBRANCH   2   1
BRANCH   5   6
ATOM      6  C   LIG    1       52.686  64.364  36.031  0.00  0.00    +0.077 C 
ATOM      7  C   LIG    1       53.968  64.162  36.854  0.00  0.00    +0.044 C 
ATOM      8  C   LIG    1       55.096  64.172  35.823  0.00  0.00    +0.150 C 
ATOM     16  N   LIG    1       54.458  63.721  34.590  0.00  0.00    -0.209 NA
ATOM     17  C   LIG    1       53.008  63.644  34.711  0.00  0.00    +0.105 C 
BRANCH   8   9
ATOM      9  C   LIG    1       56.293  63.334  36.231  0.00  0.00    +0.242 C 
ATOM     10  O   LIG    1       56.466  62.231  35.714  0.00  0.00    -0.273 OA
ATOM     11  N   LIG    1       57.137  63.877  37.119  0.00  0.00    -0.268 N 
ATOM     12  C   LIG    1       56.862  65.197  37.702  0.00  0.00    +0.106 C 
ATOM     13  C   LIG    1       57.963  65.630  38.676  0.00  0.00    +0.081 C 
ATOM     14  S   LIG    1       58.801  64.164  39.053  0.00  0.00    -0.117 S 
ATOM     15  C   LIG    1       58.373  63.244  37.599  0.00  0.00    +0.152 C 
ENDBRANCH   8   9
ENDBRANCH   5   6
TORSDOF 4
ENDMDL
MODEL 2
REMARK VINA RESULT:    -8.159      5.494      9.877
REMARK INTER + INTRA:         -10.754
REMARK INTER:                  -9.915
REMARK INTRA:                  -0.839
REMARK UNBOUND:                -0.687
REMARK  Name = ligand_1
REMARK                            x       y       z     vdW  Elec       q    Type
REMARK                         _______ _______ _______ _____ _____    ______ ____
ROOT
ATOM      2  N   LIG    1       51.231  62.643  37.426  0.00  0.00    -0.305 N 
ATOM      3  C   LIG    1       50.859  63.368  38.637  0.00  0.00    +0.108 C 
ATOM      4  C   LIG    1       49.668  62.662  39.295  0.00  0.00    +0.094 C 
ATOM      5  N   LIG    1       49.970  61.235  39.485  0.00  0.00    -0.270 NA
ATOM     18  C   LIG    1       50.358  60.517  38.278  0.00  0.00    +0.094 C 
ATOM     19  C   LIG    1       51.547  61.222  37.628  0.00  0.00    +0.108 C 
ENDROOT
BRANCH   2   1
ATOM      1  C   LIG    1       52.052  63.358  36.485  0.00  0.00    +0.051 A 
ATOM     20  C   LIG    1       51.512  64.033  35.365  0.00  0.00    +0.031 A 
ATOM     21  C   LIG    1       50.162  63.945  35.036  0.00  0.00    +0.003 A 
ATOM     22  C   LIG    1       49.657  64.615  33.925  0.00  0.00    +0.000 A 
ATOM     23  C   LIG    1       50.492  65.387  33.115  0.00  0.00    +0.002 A 
ATOM     24  C   LIG    1       51.843  65.488  33.431  0.00  0.00    +0.019 A 
ATOM     25  C   LIG    1       52.343  64.818  34.543  0.00  0.00    +0.082 A 
ATOM     26  N   LIG    1       53.656  64.928  34.808  0.00  0.00    -0.241 NA
ATOM     27  C   LIG    1       54.214  64.296  35.861  0.00  0.00    +0.154 A 
ATOM     32  C   LIG    1       53.428  63.516  36.724  0.00  0.00    +0.038 A 
BRANCH  27  28
ATOM     28  C   LIG    1       55.688  64.544  36.030  0.00  0.00    +0.435 C 
ATOM     29  F   LIG    1       56.012  65.635  35.366  0.00  0.00    -0.164 F 
ATOM     30  F   LIG    1       56.460  63.534  35.677  0.00  0.00    -0.164 F 
ATOM     31  F   LIG    1       55.880  64.788  37.309  0.00  0.00    -0.164 F 
ENDBRANCH  27  28
ENDBRANCH   2   1
BRANCH   5   6
ATOM      6  C   LIG    1       48.801  60.542  40.094  0.00  0.00    +0.077 C 
ATOM      7  C   LIG    1       48.542  59.159  39.478  0.00  0.00    +0.044 C 
ATOM      8  C   LIG    1       47.829  58.372  40.578  0.00  0.00    +0.150 C 
ATOM     16  N   LIG    1       48.286  58.993  41.816  0.00  0.00    -0.209 NA
ATOM     17  C   LIG    1       49.037  60.219  41.578  0.00  0.00    +0.105 C 
BRANCH   8   9
ATOM      9  C   LIG    1       48.087  56.878  40.514  0.00  0.00    +0.242 C 
ATOM     10  O   LIG    1       49.137  56.424  40.968  0.00  0.00    -0.273 OA
ATOM     11  N   LIG    1       47.112  56.117  39.997  0.00  0.00    -0.268 N 
ATOM     12  C   LIG    1       45.888  56.730  39.465  0.00  0.00    +0.106 C 
ATOM     13  C   LIG    1       44.905  55.677  38.942  0.00  0.00    +0.081 C 
ATOM     14  S   LIG    1       45.871  54.255  38.739  0.00  0.00    -0.117 S 
ATOM     15  C   LIG    1       47.155  54.652  39.895  0.00  0.00    +0.152 C 
ENDBRANCH   8   9
ENDBRANCH   5   6
TORSDOF 4
ENDMDL
MODEL 3
REMARK VINA RESULT:    -7.720      4.591      8.837
REMARK INTER + INTRA:         -10.213
REMARK INTER:                  -9.620
REMARK INTRA:                  -0.593
REMARK UNBOUND:                -0.687
REMARK  Name = ligand_1
REMARK                            x       y       z     vdW  Elec       q    Type
REMARK                         _______ _______ _______ _____ _____    ______ ____
ROOT
ATOM      2  N   LIG    1       50.727  63.042  36.607  0.00  0.00    -0.305 N 
ATOM      3  C   LIG    1       49.387  62.699  36.140  0.00  0.00    +0.108 C 
ATOM      4  C   LIG    1       48.873  61.496  36.937  0.00  0.00    +0.094 C 
ATOM      5  N   LIG    1       48.987  61.761  38.380  0.00  0.00    -0.270 NA
ATOM     18  C   LIG    1       50.322  62.119  38.841  0.00  0.00    +0.094 C 
ATOM     19  C   LIG    1       50.828  63.321  38.047  0.00  0.00    +0.108 C 
ENDROOT
BRANCH   2   1
ATOM      1  C   LIG    1       51.512  63.873  35.732  0.00  0.00    +0.051 A 
ATOM     20  C   LIG    1       52.923  63.802  35.680  0.00  0.00    +0.031 A 
ATOM     21  C   LIG    1       53.651  63.007  36.563  0.00  0.00    +0.003 A 
ATOM     22  C   LIG    1       55.040  62.959  36.493  0.00  0.00    +0.000 A 
ATOM     23  C   LIG    1       55.735  63.709  35.542  0.00  0.00    +0.002 A 
ATOM     24  C   LIG    1       55.024  64.506  34.652  0.00  0.00    +0.019 A 
ATOM     25  C   LIG    1       53.635  64.549  34.723  0.00  0.00    +0.082 A 
ATOM     26  N   LIG    1       52.984  65.342  33.856  0.00  0.00    -0.241 NA
ATOM     27  C   LIG    1       51.639  65.445  33.874  0.00  0.00    +0.154 A 
ATOM     32  C   LIG    1       50.878  64.707  34.795  0.00  0.00    +0.038 A 
BRANCH  27  28
ATOM     28  C   LIG    1       51.067  66.354  32.821  0.00  0.00    +0.435 C 
ATOM     29  F   LIG    1       51.697  66.135  31.684  0.00  0.00    -0.164 F 
ATOM     30  F   LIG    1       51.091  67.637  33.129  0.00  0.00    -0.164 F 
ATOM     31  F   LIG    1       49.813  65.990  32.655  0.00  0.00    -0.164 F 
ENDBRANCH  27  28
ENDBRANCH   2   1
BRANCH   5   6
ATOM      6  C   LIG    1       48.517  60.579  39.155  0.00  0.00    +0.077 C 
ATOM      7  C   LIG    1       49.527  59.421  39.142  0.00  0.00    +0.044 C 
ATOM      8  C   LIG    1       49.242  58.644  40.427  0.00  0.00    +0.150 C 
ATOM     16  N   LIG    1       48.671  59.639  41.328  0.00  0.00    -0.209 NA
ATOM     17  C   LIG    1       48.378  60.896  40.653  0.00  0.00    +0.105 C 
BRANCH   8   9
ATOM      9  C   LIG    1       50.463  57.941  40.990  0.00  0.00    +0.242 C 
ATOM     10  O   LIG    1       51.562  58.489  40.924  0.00  0.00    -0.273 OA
ATOM     11  N   LIG    1       50.260  56.755  41.582  0.00  0.00    -0.268 N 
ATOM     12  C   LIG    1       48.919  56.156  41.616  0.00  0.00    +0.106 C 
ATOM     13  C   LIG    1       48.914  54.814  42.355  0.00  0.00    +0.081 C 
ATOM     14  S   LIG    1       50.578  54.340  42.391  0.00  0.00    -0.117 S 
ATOM     15  C   LIG    1       51.305  55.949  42.226  0.00  0.00    +0.152 C 
ENDBRANCH   8   9
ENDBRANCH   5   6
TORSDOF 4
ENDMDL
MODEL 4
REMARK VINA RESULT:    -7.711      5.024      9.282
REMARK INTER + INTRA:         -10.201
REMARK INTER:                  -9.925
REMARK INTRA:                  -0.276
REMARK UNBOUND:                -0.687
REMARK  Name = ligand_1
REMARK                            x       y       z     vdW  Elec       q    Type
REMARK                         _______ _______ _______ _____ _____    ______ ____
ROOT
ATOM      2  N   LIG    1       50.976  62.391  37.193  0.00  0.00    -0.305 N 
ATOM      3  C   LIG    1       50.059  61.439  36.573  0.00  0.00    +0.108 C 
ATOM      4  C   LIG    1       49.605  60.424  37.627  0.00  0.00    +0.094 C 
ATOM      5  N   LIG    1       49.079  61.125  38.809  0.00  0.00    -0.270 NA
ATOM     18  C   LIG    1       49.989  62.087  39.416  0.00  0.00    +0.094 C 
ATOM     19  C   LIG    1       50.435  63.099  38.363  0.00  0.00    +0.108 C 
ENDROOT
BRANCH   2   1
ATOM      1  C   LIG    1       51.795  63.162  36.296  0.00  0.00    +0.051 A 
ATOM     20  C   LIG    1       51.254  63.894  35.213  0.00  0.00    +0.031 A 
ATOM     21  C   LIG    1       49.906  63.814  34.874  0.00  0.00    +0.003 A 
ATOM     22  C   LIG    1       49.400  64.541  33.800  0.00  0.00    +0.000 A 
ATOM     23  C   LIG    1       50.233  65.361  33.036  0.00  0.00    +0.002 A 
ATOM     24  C   LIG    1       51.582  65.454  33.362  0.00  0.00    +0.019 A 
ATOM     25  C   LIG    1       52.082  64.728  34.438  0.00  0.00    +0.082 A 
ATOM     26  N   LIG    1       53.394  64.832  34.713  0.00  0.00    -0.241 NA
ATOM     27  C   LIG    1       53.952  64.146  35.732  0.00  0.00    +0.154 A 
ATOM     32  C   LIG    1       53.169  63.315  36.549  0.00  0.00    +0.038 A 
BRANCH  27  28
ATOM     28  C   LIG    1       55.424  64.395  35.920  0.00  0.00    +0.435 C 
ATOM     29  F   LIG    1       56.079  63.282  35.656  0.00  0.00    -0.164 F 
ATOM     30  F   LIG    1       55.756  64.863  37.109  0.00  0.00    -0.164 F 
ATOM     31  F   LIG    1       55.771  65.283  35.013  0.00  0.00    -0.164 F 
ENDBRANCH  27  28
ENDBRANCH   2   1
BRANCH   5   6
ATOM      6  C   LIG    1       48.668  60.139  39.847  0.00  0.00    +0.077 C 
ATOM      7  C   LIG    1       49.453  58.821  39.759  0.00  0.00    +0.044 C 
ATOM      8  C   LIG    1       49.415  58.252  41.177  0.00  0.00    +0.150 C 
ATOM     16  N   LIG    1       49.264  59.426  42.030  0.00  0.00    -0.209 NA
ATOM     17  C   LIG    1       48.988  60.635  41.266  0.00  0.00    +0.105 C 
BRANCH   8   9
ATOM      9  C   LIG    1       50.625  57.402  41.518  0.00  0.00    +0.242 C 
ATOM     10  O   LIG    1       51.754  57.870  41.372  0.00  0.00    -0.273 OA
ATOM     11  N   LIG    1       50.387  56.180  42.012  0.00  0.00    -0.268 N 
ATOM     12  C   LIG    1       49.011  55.684  42.150  0.00  0.00    +0.106 C 
ATOM     13  C   LIG    1       48.971  54.275  42.751  0.00  0.00    +0.081 C 
ATOM     14  S   LIG    1       50.580  53.675  42.541  0.00  0.00    -0.117 S 
ATOM     15  C   LIG    1       51.423  55.232  42.445  0.00  0.00    +0.152 C 
ENDBRANCH   8   9
ENDBRANCH   5   6
TORSDOF 4
ENDMDL
MODEL 5
REMARK VINA RESULT:    -7.622      6.618      9.288
REMARK INTER + INTRA:         -10.091
REMARK INTER:                  -9.160
REMARK INTRA:                  -0.931
REMARK UNBOUND:                -0.687
REMARK  Name = ligand_1
REMARK                            x       y       z     vdW  Elec       q    Type
REMARK                         _______ _______ _______ _____ _____    ______ ____
ROOT
ATOM      2  N   LIG    1       52.408  63.262  35.603  0.00  0.00    -0.305 N 
ATOM      3  C   LIG    1       52.481  64.229  34.511  0.00  0.00    +0.108 C 
ATOM      4  C   LIG    1       51.205  64.127  33.668  0.00  0.00    +0.094 C 
ATOM      5  N   LIG    1       50.020  64.242  34.531  0.00  0.00    -0.270 NA
ATOM     18  C   LIG    1       49.957  63.287  35.629  0.00  0.00    +0.094 C 
ATOM     19  C   LIG    1       51.227  63.396  36.469  0.00  0.00    +0.108 C 
ENDROOT
BRANCH   2   1
ATOM      1  C   LIG    1       53.651  62.942  36.252  0.00  0.00    +0.051 A 
ATOM     20  C   LIG    1       54.096  61.611  36.427  0.00  0.00    +0.031 A 
ATOM     21  C   LIG    1       53.298  60.520  36.091  0.00  0.00    +0.003 A 
ATOM     22  C   LIG    1       53.759  59.220  36.279  0.00  0.00    +0.000 A 
ATOM     23  C   LIG    1       55.026  58.980  36.812  0.00  0.00    +0.002 A 
ATOM     24  C   LIG    1       55.838  60.058  37.151  0.00  0.00    +0.019 A 
ATOM     25  C   LIG    1       55.375  61.356  36.959  0.00  0.00    +0.082 A 
ATOM     26  N   LIG    1       56.181  62.371  37.313  0.00  0.00    -0.241 NA
ATOM     27  C   LIG    1       55.794  63.656  37.169  0.00  0.00    +0.154 A 
ATOM     32  C   LIG    1       54.538  63.967  36.626  0.00  0.00    +0.038 A 
BRANCH  27  28
ATOM     28  C   LIG    1       56.824  64.669  37.587  0.00  0.00    +0.435 C 
ATOM     29  F   LIG    1       56.687  65.746  36.840  0.00  0.00    -0.164 F 
ATOM     30  F   LIG    1       58.069  64.233  37.557  0.00  0.00    -0.164 F 
ATOM     31  F   LIG    1       56.532  65.008  38.825  0.00  0.00    -0.164 F 
ENDBRANCH  27  28
ENDBRANCH   2   1
BRANCH   5   6
ATOM      6  C   LIG    1       48.780  64.110  33.715  0.00  0.00    +0.077 C 
ATOM      7  C   LIG    1       49.035  63.457  32.348  0.00  0.00    +0.044 C 
ATOM      8  C   LIG    1       47.699  62.816  31.970  0.00  0.00    +0.150 C 
ATOM     16  N   LIG    1       47.055  62.549  33.251  0.00  0.00    -0.209 NA
ATOM     17  C   LIG    1       47.766  63.157  34.368  0.00  0.00    +0.105 C 
BRANCH   8   9
ATOM      9  C   LIG    1       47.847  61.587  31.093  0.00  0.00    +0.242 C 
ATOM     10  O   LIG    1       48.629  60.697  31.424  0.00  0.00    -0.273 OA
ATOM     11  N   LIG    1       47.064  61.521  30.006  0.00  0.00    -0.268 N 
ATOM     12  C   LIG    1       46.160  62.627  29.668  0.00  0.00    +0.106 C 
ATOM     13  C   LIG    1       45.350  62.333  28.401  0.00  0.00    +0.081 C 
ATOM     14  S   LIG    1       46.212  61.044  27.633  0.00  0.00    -0.117 S 
ATOM     15  C   LIG    1       47.028  60.393  29.065  0.00  0.00    +0.152 C 
ENDBRANCH   8   9
ENDBRANCH   5   6
TORSDOF 4
ENDMDL
MODEL 6
REMARK VINA RESULT:    -7.563      5.286      7.037
REMARK INTER + INTRA:         -10.018
REMARK INTER:                  -9.430
REMARK INTRA:                  -0.588
REMARK UNBOUND:                -0.687
REMARK  Name = ligand_1
REMARK                            x       y       z     vdW  Elec       q    Type
REMARK                         _______ _______ _______ _____ _____    ______ ____
ROOT
ATOM      2  N   LIG    1       53.548  57.928  38.724  0.00  0.00    -0.305 N 
ATOM      3  C   LIG    1       54.473  59.030  38.478  0.00  0.00    +0.108 C 
ATOM      4  C   LIG    1       54.059  59.752  37.192  0.00  0.00    +0.094 C 
ATOM      5  N   LIG    1       52.638  60.129  37.260  0.00  0.00    -0.270 NA
ATOM     18  C   LIG    1       51.718  59.031  37.523  0.00  0.00    +0.094 C 
ATOM     19  C   LIG    1       52.132  58.317  38.807  0.00  0.00    +0.108 C 
ENDROOT
BRANCH   2   1
ATOM      1  C   LIG    1       53.994  56.917  39.646  0.00  0.00    +0.051 A 
ATOM     20  C   LIG    1       54.823  55.842  39.251  0.00  0.00    +0.031 A 
ATOM     21  C   LIG    1       55.160  55.626  37.917  0.00  0.00    +0.003 A 
ATOM     22  C   LIG    1       55.974  54.557  37.555  0.00  0.00    +0.000 A 
ATOM     23  C   LIG    1       56.467  53.675  38.518  0.00  0.00    +0.002 A 
ATOM     24  C   LIG    1       56.142  53.877  39.856  0.00  0.00    +0.019 A 
ATOM     25  C   LIG    1       55.331  54.949  40.213  0.00  0.00    +0.082 A 
ATOM     26  N   LIG    1       55.026  55.102  41.513  0.00  0.00    -0.241 NA
ATOM     27  C   LIG    1       54.233  56.110  41.933  0.00  0.00    +0.154 A 
ATOM     32  C   LIG    1       53.716  57.041  41.018  0.00  0.00    +0.038 A 
BRANCH  27  28
ATOM     28  C   LIG    1       54.013  56.154  43.421  0.00  0.00    +0.435 C 
ATOM     29  F   LIG    1       54.915  56.951  43.958  0.00  0.00    -0.164 F 
ATOM     30  F   LIG    1       54.018  54.975  44.013  0.00  0.00    -0.164 F 
ATOM     31  F   LIG    1       52.834  56.708  43.607  0.00  0.00    -0.164 F 
ENDBRANCH  27  28
ENDBRANCH   2   1
BRANCH   5   6
ATOM      6  C   LIG    1       52.227  60.802  35.996  0.00  0.00    +0.077 C 
ATOM      7  C   LIG    1       51.541  62.155  36.239  0.00  0.00    +0.044 C 
ATOM      8  C   LIG    1       51.795  62.954  34.961  0.00  0.00    +0.150 C 
ATOM     16  N   LIG    1       53.029  62.389  34.425  0.00  0.00    -0.209 NA
ATOM     17  C   LIG    1       53.439  61.182  35.131  0.00  0.00    +0.105 C 
BRANCH   8   9
ATOM      9  C   LIG    1       51.859  64.452  35.189  0.00  0.00    +0.242 C 
ATOM     10  O   LIG    1       52.139  64.884  36.306  0.00  0.00    -0.273 OA
ATOM     11  N   LIG    1       51.646  65.236  34.123  0.00  0.00    -0.268 N 
ATOM     12  C   LIG    1       51.306  64.650  32.819  0.00  0.00    +0.106 C 
ATOM     13  C   LIG    1       51.123  65.725  31.742  0.00  0.00    +0.081 C 
ATOM     14  S   LIG    1       50.899  67.190  32.635  0.00  0.00    -0.117 S 
ATOM     15  C   LIG    1       51.712  66.704  34.133  0.00  0.00    +0.152 C 
ENDBRANCH   8   9
ENDBRANCH   5   6
TORSDOF 4
ENDMDL
MODEL 7
REMARK VINA RESULT:    -7.511      5.658      7.385
REMARK INTER + INTRA:          -9.954
REMARK INTER:                  -9.853
REMARK INTRA:                  -0.101
REMARK UNBOUND:                -0.687
REMARK  Name = ligand_1
REMARK                            x       y       z     vdW  Elec       q    Type
REMARK                         _______ _______ _______ _____ _____    ______ ____
ROOT
ATOM      2  N   LIG    1       54.630  58.476  38.248  0.00  0.00    -0.305 N 
ATOM      3  C   LIG    1       53.391  58.509  37.477  0.00  0.00    +0.108 C 
ATOM      4  C   LIG    1       53.113  59.952  37.041  0.00  0.00    +0.094 C 
ATOM      5  N   LIG    1       54.292  60.508  36.358  0.00  0.00    -0.270 NA
ATOM     18  C   LIG    1       55.532  60.458  37.122  0.00  0.00    +0.094 C 
ATOM     19  C   LIG    1       55.806  59.019  37.551  0.00  0.00    +0.108 C 
ENDROOT
BRANCH   2   1
ATOM      1  C   LIG    1       54.844  57.306  39.057  0.00  0.00    +0.051 A 
ATOM     20  C   LIG    1       55.581  56.189  38.599  0.00  0.00    +0.031 A 
ATOM     21  C   LIG    1       56.043  56.102  37.288  0.00  0.00    +0.003 A 
ATOM     22  C   LIG    1       56.762  54.989  36.862  0.00  0.00    +0.000 A 
ATOM     23  C   LIG    1       57.032  53.934  37.735  0.00  0.00    +0.002 A 
ATOM     24  C   LIG    1       56.580  54.005  39.049  0.00  0.00    +0.019 A 
ATOM     25  C   LIG    1       55.864  55.121  39.471  0.00  0.00    +0.082 A 
ATOM     26  N   LIG    1       55.431  55.147  40.743  0.00  0.00    -0.241 NA
ATOM     27  C   LIG    1       54.719  56.189  41.220  0.00  0.00    +0.154 A 
ATOM     32  C   LIG    1       54.425  57.289  40.399  0.00  0.00    +0.038 A 
BRANCH  27  28
ATOM     28  C   LIG    1       54.335  56.072  42.670  0.00  0.00    +0.435 C 
ATOM     29  F   LIG    1       54.670  54.873  43.102  0.00  0.00    -0.164 F 
ATOM     30  F   LIG    1       53.064  56.324  42.924  0.00  0.00    -0.164 F 
ATOM     31  F   LIG    1       55.070  56.947  43.322  0.00  0.00    -0.164 F 
ENDBRANCH  27  28
ENDBRANCH   2   1
BRANCH   5   6
ATOM      6  C   LIG    1       54.034  61.921  35.963  0.00  0.00    +0.077 C 
ATOM      7  C   LIG    1       53.394  62.041  34.572  0.00  0.00    +0.044 C 
ATOM      8  C   LIG    1       52.625  63.362  34.612  0.00  0.00    +0.150 C 
ATOM     16  N   LIG    1       52.311  63.551  36.024  0.00  0.00    -0.209 NA
ATOM     17  C   LIG    1       52.995  62.589  36.878  0.00  0.00    +0.105 C 
BRANCH   8   9
ATOM      9  C   LIG    1       51.407  63.379  33.708  0.00  0.00    +0.242 C 
ATOM     10  O   LIG    1       50.814  62.327  33.471  0.00  0.00    -0.273 OA
ATOM     11  N   LIG    1       51.011  64.573  33.246  0.00  0.00    -0.268 N 
ATOM     12  C   LIG    1       51.775  65.787  33.563  0.00  0.00    +0.106 C 
ATOM     13  C   LIG    1       51.136  67.038  32.949  0.00  0.00    +0.081 C 
ATOM     14  S   LIG    1       50.075  66.420  31.730  0.00  0.00    -0.117 S 
ATOM     15  C   LIG    1       49.831  64.797  32.401  0.00  0.00    +0.152 C 
ENDBRANCH   8   9
ENDBRANCH   5   6
TORSDOF 4
ENDMDL
MODEL 8
REMARK VINA RESULT:    -7.385      6.218      9.709
REMARK INTER + INTRA:          -9.798
REMARK INTER:                  -9.647
REMARK INTRA:                  -0.152
REMARK UNBOUND:                -0.687
REMARK  Name = ligand_1
REMARK                            x       y       z     vdW  Elec       q    Type
REMARK                         _______ _______ _______ _____ _____    ______ ____
ROOT
ATOM      2  N   LIG    1       55.432  60.589  36.886  0.00  0.00    -0.305 N 
ATOM      3  C   LIG    1       56.322  59.657  36.200  0.00  0.00    +0.108 C 
ATOM      4  C   LIG    1       56.155  58.263  36.813  0.00  0.00    +0.094 C 
ATOM      5  N   LIG    1       54.734  57.883  36.823  0.00  0.00    -0.270 NA
ATOM     18  C   LIG    1       53.845  58.822  37.494  0.00  0.00    +0.094 C 
ATOM     19  C   LIG    1       54.011  60.208  36.876  0.00  0.00    +0.108 C 
ENDROOT
BRANCH   2   1
ATOM      1  C   LIG    1       55.726  61.987  36.721  0.00  0.00    +0.051 A 
ATOM     20  C   LIG    1       55.050  62.800  35.782  0.00  0.00    +0.031 A 
ATOM     21  C   LIG    1       54.140  62.268  34.871  0.00  0.00    +0.003 A 
ATOM     22  C   LIG    1       53.492  63.090  33.954  0.00  0.00    +0.000 A 
ATOM     23  C   LIG    1       53.742  64.463  33.922  0.00  0.00    +0.002 A 
ATOM     24  C   LIG    1       54.646  65.012  34.826  0.00  0.00    +0.019 A 
ATOM     25  C   LIG    1       55.289  64.187  35.743  0.00  0.00    +0.082 A 
ATOM     26  N   LIG    1       56.167  64.751  36.590  0.00  0.00    -0.241 NA
ATOM     27  C   LIG    1       56.839  64.012  37.497  0.00  0.00    +0.154 A 
ATOM     32  C   LIG    1       56.624  62.628  37.592  0.00  0.00    +0.038 A 
BRANCH  27  28
ATOM     28  C   LIG    1       57.762  64.801  38.386  0.00  0.00    +0.435 C 
ATOM     29  F   LIG    1       57.531  64.467  39.639  0.00  0.00    -0.164 F 
ATOM     30  F   LIG    1       57.691  66.110  38.229  0.00  0.00    -0.164 F 
ATOM     31  F   LIG    1       58.984  64.413  38.092  0.00  0.00    -0.164 F 
ENDBRANCH  27  28
ENDBRANCH   2   1
BRANCH   5   6
ATOM      6  C   LIG    1       54.569  56.541  37.450  0.00  0.00    +0.077 C 
ATOM      7  C   LIG    1       54.613  56.593  38.984  0.00  0.00    +0.044 C 
ATOM      8  C   LIG    1       53.805  55.376  39.436  0.00  0.00    +0.150 C 
ATOM     16  N   LIG    1       52.877  55.134  38.337  0.00  0.00    -0.209 NA
ATOM     17  C   LIG    1       53.180  55.945  37.166  0.00  0.00    +0.105 C 
BRANCH   8   9
ATOM      9  C   LIG    1       53.125  55.569  40.778  0.00  0.00    +0.242 C 
ATOM     10  O   LIG    1       52.067  56.196  40.837  0.00  0.00    -0.273 OA
ATOM     11  N   LIG    1       53.705  54.993  41.840  0.00  0.00    -0.268 N 
ATOM     12  C   LIG    1       54.974  54.266  41.696  0.00  0.00    +0.106 C 
ATOM     13  C   LIG    1       55.445  53.675  43.029  0.00  0.00    +0.081 C 
ATOM     14  S   LIG    1       54.543  54.543  44.224  0.00  0.00    -0.117 S 
ATOM     15  C   LIG    1       53.172  55.026  43.209  0.00  0.00    +0.152 C 
ENDBRANCH   8   9
ENDBRANCH   5   6
TORSDOF 4
ENDMDL
MODEL 9
REMARK VINA RESULT:    -7.234      4.472      7.889
REMARK INTER + INTRA:          -9.612
REMARK INTER:                  -8.738
REMARK INTRA:                  -0.874
REMARK UNBOUND:                -0.687
REMARK  Name = ligand_1
REMARK                            x       y       z     vdW  Elec       q    Type
REMARK                         _______ _______ _______ _____ _____    ______ ____
ROOT
ATOM      2  N   LIG    1       49.226  61.969  36.507  0.00  0.00    -0.305 N 
ATOM      3  C   LIG    1       49.056  60.602  36.025  0.00  0.00    +0.108 C 
ATOM      4  C   LIG    1       49.463  59.627  37.136  0.00  0.00    +0.094 C 
ATOM      5  N   LIG    1       48.743  59.950  38.378  0.00  0.00    -0.270 NA
ATOM     18  C   LIG    1       48.901  61.320  38.848  0.00  0.00    +0.094 C 
ATOM     19  C   LIG    1       48.490  62.287  37.740  0.00  0.00    +0.108 C 
ENDROOT
BRANCH   2   1
ATOM      1  C   LIG    1       49.271  62.997  35.500  0.00  0.00    +0.051 A 
ATOM     20  C   LIG    1       50.410  63.809  35.294  0.00  0.00    +0.031 A 
ATOM     21  C   LIG    1       51.517  63.748  36.136  0.00  0.00    +0.003 A 
ATOM     22  C   LIG    1       52.624  64.563  35.913  0.00  0.00    +0.000 A 
ATOM     23  C   LIG    1       52.646  65.462  34.846  0.00  0.00    +0.002 A 
ATOM     24  C   LIG    1       51.550  65.535  33.994  0.00  0.00    +0.019 A 
ATOM     25  C   LIG    1       50.447  64.717  34.218  0.00  0.00    +0.082 A 
ATOM     26  N   LIG    1       49.400  64.826  33.383  0.00  0.00    -0.241 NA
ATOM     27  C   LIG    1       48.291  64.076  33.546  0.00  0.00    +0.154 A 
ATOM     32  C   LIG    1       48.209  63.141  34.591  0.00  0.00    +0.038 A 
BRANCH  27  28
ATOM     28  C   LIG    1       47.224  64.302  32.510  0.00  0.00    +0.435 C 
ATOM     29  F   LIG    1       46.999  63.167  31.879  0.00  0.00    -0.164 F 
ATOM     30  F   LIG    1       47.487  65.270  31.653  0.00  0.00    -0.164 F 
ATOM     31  F   LIG    1       46.127  64.614  33.167  0.00  0.00    -0.164 F 
ENDBRANCH  27  28
ENDBRANCH   2   1
BRANCH   5   6
ATOM      6  C   LIG    1       49.163  59.023  39.466  0.00  0.00    +0.077 C 
ATOM      7  C   LIG    1       50.386  58.174  39.086  0.00  0.00    +0.044 C 
ATOM      8  C   LIG    1       51.049  57.830  40.420  0.00  0.00    +0.150 C 
ATOM     16  N   LIG    1       50.658  58.921  41.306  0.00  0.00    -0.209 NA
ATOM     17  C   LIG    1       49.647  59.785  40.710  0.00  0.00    +0.105 C 
BRANCH   8   9
ATOM      9  C   LIG    1       52.550  57.637  40.315  0.00  0.00    +0.242 C 
ATOM     10  O   LIG    1       53.185  58.270  39.472  0.00  0.00    -0.273 OA
ATOM     11  N   LIG    1       53.116  56.803  41.198  0.00  0.00    -0.268 N 
ATOM     12  C   LIG    1       52.293  56.074  42.172  0.00  0.00    +0.106 C 
ATOM     13  C   LIG    1       53.146  55.194  43.092  0.00  0.00    +0.081 C 
ATOM     14  S   LIG    1       54.659  55.050  42.264  0.00  0.00    -0.117 S 
ATOM     15  C   LIG    1       54.556  56.525  41.286  0.00  0.00    +0.152 C 
ENDBRANCH   8   9
ENDBRANCH   5   6
TORSDOF 4
ENDMDL
