MODEL 1
REMARK VINA RESULT:    -8.466      0.000      0.000
REMARK INTER + INTRA:         -11.154
REMARK INTER:                 -10.446
REMARK INTRA:                  -0.708
REMARK UNBOUND:                -0.708
REMARK  Name = ligand_1
REMARK                            x       y       z     vdW  Elec       q    Type
REMARK                         _______ _______ _______ _____ _____    ______ ____
ROOT
ATOM      2  N   LIG    1       50.191  61.936  38.325  0.00  0.00    -0.305 N 
ATOM      3  C   LIG    1       50.410  63.278  38.855  0.00  0.00    +0.108 C 
ATOM      4  C   LIG    1       51.643  63.888  38.180  0.00  0.00    +0.094 C 
ATOM      5  N   LIG    1       51.509  63.805  36.717  0.00  0.00    -0.270 NA
ATOM     18  C   LIG    1       51.275  62.467  36.191  0.00  0.00    +0.094 C 
ATOM     19  C   LIG    1       50.042  61.866  36.864  0.00  0.00    +0.108 C 
ENDROOT
BRANCH   2   1
ATOM      1  C   LIG    1       49.338  61.077  39.102  0.00  0.00    +0.051 A 
ATOM     20  C   LIG    1       49.839  59.991  39.858  0.00  0.00    +0.031 A 
ATOM     21  C   LIG    1       51.177  59.611  39.799  0.00  0.00    +0.003 A 
ATOM     22  C   LIG    1       51.643  58.535  40.549  0.00  0.00    +0.000 A 
ATOM     23  C   LIG    1       50.780  57.811  41.373  0.00  0.00    +0.002 A 
ATOM     24  C   LIG    1       49.440  58.178  41.446  0.00  0.00    +0.019 A 
ATOM     25  C   LIG    1       48.980  59.256  40.696  0.00  0.00    +0.082 A 
ATOM     26  N   LIG    1       47.676  59.572  40.781  0.00  0.00    -0.241 NA
ATOM     27  C   LIG    1       47.155  60.595  40.073  0.00  0.00    +0.154 A 
ATOM     32  C   LIG    1       47.971  61.373  39.236  0.00  0.00    +0.038 A 
BRANCH  27  28
ATOM     28  C   LIG    1       45.687  60.831  40.303  0.00  0.00    +0.435 C 
ATOM     29  F   LIG    1       45.056  60.722  39.151  0.00  0.00    -0.164 F 
ATOM     30  F   LIG    1       45.400  61.978  40.888  0.00  0.00    -0.164 F 
ATOM     31  F   LIG    1       45.269  59.853  41.077  0.00  0.00    -0.164 F 
ENDBRANCH  27  28
ENDBRANCH   2   1
BRANCH   5   6
ATOM      6  C   LIG    1       52.723  64.367  36.061  0.00  0.00    +0.077 C 
ATOM      7  C   LIG    1       53.995  64.176  36.900  0.00  0.00    +0.044 C 
ATOM      8  C   LIG    1       55.134  64.172  35.880  0.00  0.00    +0.150 C 
ATOM     16  N   LIG    1       54.509  63.706  34.647  0.00  0.00    -0.209 NA
ATOM     17  C   LIG    1       53.059  63.631  34.754  0.00  0.00    +0.105 C 
BRANCH   8   9
ATOM      9  C   LIG    1       56.327  63.339  36.313  0.00  0.00    +0.242 C 
ATOM     10  O   LIG    1       56.493  62.221  35.827  0.00  0.00    -0.273 OA
ATOM     11  N   LIG    1       57.175  63.903  37.184  0.00  0.00    -0.268 N 
ATOM     12  C   LIG    1       56.907  65.240  37.729  0.00  0.00    +0.106 C 
ATOM     13  C   LIG    1       58.012  65.694  38.690  0.00  0.00    +0.081 C 
ATOM     14  S   LIG    1       58.841  64.234  39.109  0.00  0.00    -0.117 S 
ATOM     15  C   LIG    1       58.407  63.276  37.682  0.00  0.00    +0.152 C 
ENDBRANCH   8   9
ENDBRANCH   5   6
TORSDOF 4
ENDMDL
MODEL 2
REMARK VINA RESULT:    -8.167      5.494      9.870
REMARK INTER + INTRA:         -10.784
REMARK INTER:                  -9.946
REMARK INTRA:                  -0.838
REMARK UNBOUND:                -0.708
REMARK  Name = ligand_1
REMARK                            x       y       z     vdW  Elec       q    Type
REMARK                         _______ _______ _______ _____ _____    ______ ____
ROOT
ATOM      2  N   LIG    1       51.217  62.622  37.454  0.00  0.00    -0.305 N 
ATOM      3  C   LIG    1       50.813  63.372  38.640  0.00  0.00    +0.108 C 
ATOM      4  C   LIG    1       49.637  62.654  39.308  0.00  0.00    +0.094 C 
ATOM      5  N   LIG    1       49.976  61.242  39.545  0.00  0.00    -0.270 NA
ATOM     18  C   LIG    1       50.395  60.499  38.363  0.00  0.00    +0.094 C 
ATOM     19  C   LIG    1       51.571  61.216  37.703  0.00  0.00    +0.108 C 
ENDROOT
BRANCH   2   1
ATOM      1  C   LIG    1       52.026  63.331  36.499  0.00  0.00    +0.051 A 
ATOM     20  C   LIG    1       51.477  63.973  35.365  0.00  0.00    +0.031 A 
ATOM     21  C   LIG    1       50.128  63.854  35.037  0.00  0.00    +0.003 A 
ATOM     22  C   LIG    1       49.614  64.493  33.912  0.00  0.00    +0.000 A 
ATOM     23  C   LIG    1       50.436  65.261  33.086  0.00  0.00    +0.002 A 
ATOM     24  C   LIG    1       51.785  65.392  33.400  0.00  0.00    +0.019 A 
ATOM     25  C   LIG    1       52.294  64.754  34.527  0.00  0.00    +0.082 A 
ATOM     26  N   LIG    1       53.605  64.892  34.790  0.00  0.00    -0.241 NA
ATOM     27  C   LIG    1       54.173  64.291  35.857  0.00  0.00    +0.154 A 
ATOM     32  C   LIG    1       53.400  63.516  36.736  0.00  0.00    +0.038 A 
BRANCH  27  28
ATOM     28  C   LIG    1       55.642  64.568  36.021  0.00  0.00    +0.435 C 
ATOM     29  F   LIG    1       56.323  63.557  35.519  0.00  0.00    -0.164 F 
ATOM     30  F   LIG    1       56.020  64.816  37.262  0.00  0.00    -0.164 F 
ATOM     31  F   LIG    1       55.907  65.627  35.287  0.00  0.00    -0.164 F 
ENDBRANCH  27  28
ENDBRANCH   2   1
BRANCH   5   6
ATOM      6  C   LIG    1       48.821  60.535  40.165  0.00  0.00    +0.077 C 
ATOM      7  C   LIG    1       48.560  59.158  39.537  0.00  0.00    +0.044 C 
ATOM      8  C   LIG    1       47.869  58.354  40.640  0.00  0.00    +0.150 C 
ATOM     16  N   LIG    1       48.343  58.964  41.877  0.00  0.00    -0.209 NA
ATOM     17  C   LIG    1       49.084  60.196  41.641  0.00  0.00    +0.105 C 
BRANCH   8   9
ATOM      9  C   LIG    1       48.134  56.863  40.554  0.00  0.00    +0.242 C 
ATOM     10  O   LIG    1       49.190  56.409  40.993  0.00  0.00    -0.273 OA
ATOM     11  N   LIG    1       47.159  56.103  40.035  0.00  0.00    -0.268 N 
ATOM     12  C   LIG    1       45.927  56.717  39.522  0.00  0.00    +0.106 C 
ATOM     13  C   LIG    1       44.946  55.665  38.994  0.00  0.00    +0.081 C 
ATOM     14  S   LIG    1       45.917  54.251  38.764  0.00  0.00    -0.117 S 
ATOM     15  C   LIG    1       47.209  54.640  39.914  0.00  0.00    +0.152 C 
ENDBRANCH   8   9
ENDBRANCH   5   6
TORSDOF 4
ENDMDL
MODEL 3
REMARK VINA RESULT:    -7.825      1.966      3.111
REMARK INTER + INTRA:         -10.363
REMARK INTER:                 -10.433
REMARK INTRA:                   0.070
REMARK UNBOUND:                -0.708
REMARK  Name = ligand_1
REMARK                            x       y       z     vdW  Elec       q    Type
REMARK                         _______ _______ _______ _____ _____    ______ ____
ROOT
ATOM      2  N   LIG    1       50.538  61.749  38.716  0.00  0.00    -0.305 N 
ATOM      3  C   LIG    1       50.432  63.177  39.000  0.00  0.00    +0.108 C 
ATOM      4  C   LIG    1       51.587  63.910  38.309  0.00  0.00    +0.094 C 
ATOM      5  N   LIG    1       51.627  63.555  36.882  0.00  0.00    -0.270 NA
ATOM     18  C   LIG    1       51.715  62.128  36.600  0.00  0.00    +0.094 C 
ATOM     19  C   LIG    1       50.560  61.403  37.287  0.00  0.00    +0.108 C 
ENDROOT
BRANCH   2   1
ATOM      1  C   LIG    1       49.792  60.873  39.580  0.00  0.00    +0.051 A 
ATOM     20  C   LIG    1       48.400  61.011  39.785  0.00  0.00    +0.031 A 
ATOM     21  C   LIG    1       47.684  62.083  39.258  0.00  0.00    +0.003 A 
ATOM     22  C   LIG    1       46.314  62.199  39.479  0.00  0.00    +0.000 A 
ATOM     23  C   LIG    1       45.629  61.248  40.237  0.00  0.00    +0.002 A 
ATOM     24  C   LIG    1       46.328  60.169  40.769  0.00  0.00    +0.019 A 
ATOM     25  C   LIG    1       47.696  60.056  40.543  0.00  0.00    +0.082 A 
ATOM     26  N   LIG    1       48.340  59.009  41.086  0.00  0.00    -0.241 NA
ATOM     27  C   LIG    1       49.669  58.841  40.922  0.00  0.00    +0.154 A 
ATOM     32  C   LIG    1       50.415  59.753  40.159  0.00  0.00    +0.038 A 
BRANCH  27  28
ATOM     28  C   LIG    1       50.228  57.605  41.572  0.00  0.00    +0.435 C 
ATOM     29  F   LIG    1       50.860  56.896  40.658  0.00  0.00    -0.164 F 
ATOM     30  F   LIG    1       49.337  56.866  42.206  0.00  0.00    -0.164 F 
ATOM     31  F   LIG    1       51.124  58.015  42.444  0.00  0.00    -0.164 F 
ENDBRANCH  27  28
ENDBRANCH   2   1
BRANCH   5   6
ATOM      6  C   LIG    1       52.769  64.242  36.217  0.00  0.00    +0.077 C 
ATOM      7  C   LIG    1       54.088  64.085  36.988  0.00  0.00    +0.044 C 
ATOM      8  C   LIG    1       55.178  64.227  35.925  0.00  0.00    +0.150 C 
ATOM     16  N   LIG    1       54.530  63.800  34.690  0.00  0.00    -0.209 NA
ATOM     17  C   LIG    1       53.094  63.618  34.850  0.00  0.00    +0.105 C 
BRANCH   8   9
ATOM      9  C   LIG    1       56.442  63.452  36.251  0.00  0.00    +0.242 C 
ATOM     10  O   LIG    1       56.689  62.413  35.641  0.00  0.00    -0.273 OA
ATOM     11  N   LIG    1       57.256  63.983  37.173  0.00  0.00    -0.268 N 
ATOM     12  C   LIG    1       56.891  65.225  37.868  0.00  0.00    +0.106 C 
ATOM     13  C   LIG    1       57.972  65.659  38.863  0.00  0.00    +0.081 C 
ATOM     14  S   LIG    1       58.924  64.235  39.108  0.00  0.00    -0.117 S 
ATOM     15  C   LIG    1       58.544  63.409  37.586  0.00  0.00    +0.152 C 
ENDBRANCH   8   9
ENDBRANCH   5   6
TORSDOF 4
ENDMDL
MODEL 4
REMARK VINA RESULT:    -7.694      5.029      9.285
REMARK INTER + INTRA:         -10.201
REMARK INTER:                  -9.925
REMARK INTRA:                  -0.276
REMARK UNBOUND:                -0.708
REMARK  Name = ligand_1
REMARK                            x       y       z     vdW  Elec       q    Type
REMARK                         _______ _______ _______ _____ _____    ______ ____
ROOT
ATOM      2  N   LIG    1       50.976  62.391  37.193  0.00  0.00    -0.305 N 
ATOM      3  C   LIG    1       50.059  61.439  36.573  0.00  0.00    +0.108 C 
ATOM      4  C   LIG    1       49.605  60.424  37.627  0.00  0.00    +0.094 C 
ATOM      5  N   LIG    1       49.079  61.125  38.809  0.00  0.00    -0.270 NA
ATOM     18  C   LIG    1       49.989  62.087  39.416  0.00  0.00    +0.094 C 
ATOM     19  C   LIG    1       50.435  63.099  38.363  0.00  0.00    +0.108 C 
ENDROOT
BRANCH   2   1
ATOM      1  C   LIG    1       51.795  63.162  36.296  0.00  0.00    +0.051 A 
ATOM     20  C   LIG    1       51.254  63.894  35.213  0.00  0.00    +0.031 A 
ATOM     21  C   LIG    1       49.906  63.814  34.874  0.00  0.00    +0.003 A 
ATOM     22  C   LIG    1       49.400  64.541  33.800  0.00  0.00    +0.000 A 
ATOM     23  C   LIG    1       50.233  65.361  33.036  0.00  0.00    +0.002 A 
ATOM     24  C   LIG    1       51.582  65.454  33.362  0.00  0.00    +0.019 A 
ATOM     25  C   LIG    1       52.082  64.728  34.438  0.00  0.00    +0.082 A 
ATOM     26  N   LIG    1       53.394  64.832  34.713  0.00  0.00    -0.241 NA
ATOM     27  C   LIG    1       53.952  64.146  35.732  0.00  0.00    +0.154 A 
ATOM     32  C   LIG    1       53.169  63.315  36.549  0.00  0.00    +0.038 A 
BRANCH  27  28
ATOM     28  C   LIG    1       55.424  64.395  35.920  0.00  0.00    +0.435 C 
ATOM     29  F   LIG    1       56.079  63.282  35.656  0.00  0.00    -0.164 F 
ATOM     30  F   LIG    1       55.756  64.863  37.109  0.00  0.00    -0.164 F 
ATOM     31  F   LIG    1       55.771  65.283  35.013  0.00  0.00    -0.164 F 
ENDBRANCH  27  28
ENDBRANCH   2   1
BRANCH   5   6
ATOM      6  C   LIG    1       48.668  60.139  39.847  0.00  0.00    +0.077 C 
ATOM      7  C   LIG    1       49.453  58.821  39.759  0.00  0.00    +0.044 C 
ATOM      8  C   LIG    1       49.415  58.252  41.177  0.00  0.00    +0.150 C 
ATOM     16  N   LIG    1       49.264  59.426  42.030  0.00  0.00    -0.209 NA
ATOM     17  C   LIG    1       48.988  60.635  41.266  0.00  0.00    +0.105 C 
BRANCH   8   9
ATOM      9  C   LIG    1       50.625  57.402  41.518  0.00  0.00    +0.242 C 
ATOM     10  O   LIG    1       51.754  57.870  41.372  0.00  0.00    -0.273 OA
ATOM     11  N   LIG    1       50.387  56.180  42.012  0.00  0.00    -0.268 N 
ATOM     12  C   LIG    1       49.011  55.684  42.150  0.00  0.00    +0.106 C 
ATOM     13  C   LIG    1       48.971  54.275  42.751  0.00  0.00    +0.081 C 
ATOM     14  S   LIG    1       50.580  53.675  42.541  0.00  0.00    -0.117 S 
ATOM     15  C   LIG    1       51.423  55.232  42.445  0.00  0.00    +0.152 C 
ENDBRANCH   8   9
ENDBRANCH   5   6
TORSDOF 4
ENDMDL
MODEL 5
REMARK VINA RESULT:    -7.693      4.580      8.830
REMARK INTER + INTRA:         -10.200
REMARK INTER:                  -9.610
REMARK INTRA:                  -0.590
REMARK UNBOUND:                -0.708
REMARK  Name = ligand_1
REMARK                            x       y       z     vdW  Elec       q    Type
REMARK                         _______ _______ _______ _____ _____    ______ ____
ROOT
ATOM      2  N   LIG    1       50.752  63.046  36.616  0.00  0.00    -0.305 N 
ATOM      3  C   LIG    1       49.415  62.672  36.162  0.00  0.00    +0.108 C 
ATOM      4  C   LIG    1       48.918  61.486  36.995  0.00  0.00    +0.094 C 
ATOM      5  N   LIG    1       49.031  61.795  38.429  0.00  0.00    -0.270 NA
ATOM     18  C   LIG    1       50.361  62.184  38.878  0.00  0.00    +0.094 C 
ATOM     19  C   LIG    1       50.850  63.369  38.048  0.00  0.00    +0.108 C 
ENDROOT
BRANCH   2   1
ATOM      1  C   LIG    1       51.524  63.861  35.717  0.00  0.00    +0.051 A 
ATOM     20  C   LIG    1       52.936  63.813  35.670  0.00  0.00    +0.031 A 
ATOM     21  C   LIG    1       53.675  63.061  36.580  0.00  0.00    +0.003 A 
ATOM     22  C   LIG    1       55.066  63.035  36.515  0.00  0.00    +0.000 A 
ATOM     23  C   LIG    1       55.750  63.765  35.541  0.00  0.00    +0.002 A 
ATOM     24  C   LIG    1       55.027  64.520  34.623  0.00  0.00    +0.019 A 
ATOM     25  C   LIG    1       53.638  64.541  34.690  0.00  0.00    +0.082 A 
ATOM     26  N   LIG    1       52.975  65.294  33.796  0.00  0.00    -0.241 NA
ATOM     27  C   LIG    1       51.628  65.374  33.808  0.00  0.00    +0.154 A 
ATOM     32  C   LIG    1       50.878  64.653  34.751  0.00  0.00    +0.038 A 
BRANCH  27  28
ATOM     28  C   LIG    1       51.043  66.237  32.724  0.00  0.00    +0.435 C 
ATOM     29  F   LIG    1       49.747  66.008  32.653  0.00  0.00    -0.164 F 
ATOM     30  F   LIG    1       51.610  66.095  31.541  0.00  0.00    -0.164 F 
ATOM     31  F   LIG    1       51.203  67.484  33.114  0.00  0.00    -0.164 F 
ENDBRANCH  27  28
ENDBRANCH   2   1
BRANCH   5   6
ATOM      6  C   LIG    1       48.578  60.630  39.239  0.00  0.00    +0.077 C 
ATOM      7  C   LIG    1       49.562  59.451  39.187  0.00  0.00    +0.044 C 
ATOM      8  C   LIG    1       49.328  58.692  40.493  0.00  0.00    +0.150 C 
ATOM     16  N   LIG    1       48.824  59.707  41.411  0.00  0.00    -0.209 NA
ATOM     17  C   LIG    1       48.522  60.963  40.739  0.00  0.00    +0.105 C 
BRANCH   8   9
ATOM      9  C   LIG    1       50.562  57.969  40.999  0.00  0.00    +0.242 C 
ATOM     10  O   LIG    1       51.665  58.500  40.883  0.00  0.00    -0.273 OA
ATOM     11  N   LIG    1       50.367  56.786  41.599  0.00  0.00    -0.268 N 
ATOM     12  C   LIG    1       49.020  56.208  41.693  0.00  0.00    +0.106 C 
ATOM     13  C   LIG    1       49.027  54.865  42.431  0.00  0.00    +0.081 C 
ATOM     14  S   LIG    1       50.683  54.365  42.393  0.00  0.00    -0.117 S 
ATOM     15  C   LIG    1       51.427  55.962  42.195  0.00  0.00    +0.152 C 
ENDBRANCH   8   9
ENDBRANCH   5   6
TORSDOF 4
ENDMDL
MODEL 6
REMARK VINA RESULT:    -7.546      5.307      7.063
REMARK INTER + INTRA:         -10.018
REMARK INTER:                  -9.430
REMARK INTRA:                  -0.588
REMARK UNBOUND:                -0.708
REMARK  Name = ligand_1
REMARK                            x       y       z     vdW  Elec       q    Type
REMARK                         _______ _______ _______ _____ _____    ______ ____
ROOT
ATOM      2  N   LIG    1       53.548  57.928  38.724  0.00  0.00    -0.305 N 
ATOM      3  C   LIG    1       54.473  59.030  38.478  0.00  0.00    +0.108 C 
ATOM      4  C   LIG    1       54.059  59.752  37.192  0.00  0.00    +0.094 C 
ATOM      5  N   LIG    1       52.638  60.129  37.260  0.00  0.00    -0.270 NA
ATOM     18  C   LIG    1       51.718  59.031  37.523  0.00  0.00    +0.094 C 
ATOM     19  C   LIG    1       52.132  58.317  38.807  0.00  0.00    +0.108 C 
ENDROOT
BRANCH   2   1
ATOM      1  C   LIG    1       53.994  56.917  39.646  0.00  0.00    +0.051 A 
ATOM     20  C   LIG    1       54.823  55.842  39.251  0.00  0.00    +0.031 A 
ATOM     21  C   LIG    1       55.160  55.626  37.917  0.00  0.00    +0.003 A 
ATOM     22  C   LIG    1       55.974  54.557  37.555  0.00  0.00    +0.000 A 
ATOM     23  C   LIG    1       56.467  53.675  38.518  0.00  0.00    +0.002 A 
ATOM     24  C   LIG    1       56.142  53.877  39.856  0.00  0.00    +0.019 A 
ATOM     25  C   LIG    1       55.331  54.949  40.213  0.00  0.00    +0.082 A 
ATOM     26  N   LIG    1       55.026  55.102  41.513  0.00  0.00    -0.241 NA
ATOM     27  C   LIG    1       54.233  56.110  41.933  0.00  0.00    +0.154 A 
ATOM     32  C   LIG    1       53.716  57.041  41.018  0.00  0.00    +0.038 A 
BRANCH  27  28
ATOM     28  C   LIG    1       54.013  56.154  43.421  0.00  0.00    +0.435 C 
ATOM     29  F   LIG    1       54.915  56.951  43.958  0.00  0.00    -0.164 F 
ATOM     30  F   LIG    1       54.018  54.975  44.013  0.00  0.00    -0.164 F 
ATOM     31  F   LIG    1       52.834  56.708  43.607  0.00  0.00    -0.164 F 
ENDBRANCH  27  28
ENDBRANCH   2   1
BRANCH   5   6
ATOM      6  C   LIG    1       52.227  60.802  35.996  0.00  0.00    +0.077 C 
ATOM      7  C   LIG    1       51.541  62.155  36.239  0.00  0.00    +0.044 C 
ATOM      8  C   LIG    1       51.795  62.954  34.961  0.00  0.00    +0.150 C 
ATOM     16  N   LIG    1       53.029  62.389  34.425  0.00  0.00    -0.209 NA
ATOM     17  C   LIG    1       53.439  61.182  35.131  0.00  0.00    +0.105 C 
BRANCH   8   9
ATOM      9  C   LIG    1       51.859  64.452  35.189  0.00  0.00    +0.242 C 
ATOM     10  O   LIG    1       52.139  64.884  36.306  0.00  0.00    -0.273 OA
ATOM     11  N   LIG    1       51.646  65.236  34.123  0.00  0.00    -0.268 N 
ATOM     12  C   LIG    1       51.306  64.650  32.819  0.00  0.00    +0.106 C 
ATOM     13  C   LIG    1       51.123  65.725  31.742  0.00  0.00    +0.081 C 
ATOM     14  S   LIG    1       50.899  67.190  32.635  0.00  0.00    -0.117 S 
ATOM     15  C   LIG    1       51.712  66.704  34.133  0.00  0.00    +0.152 C 
ENDBRANCH   8   9
ENDBRANCH   5   6
TORSDOF 4
ENDMDL
MODEL 7
REMARK VINA RESULT:    -7.508      5.732      7.465
REMARK INTER + INTRA:          -9.972
REMARK INTER:                  -9.886
REMARK INTRA:                  -0.086
REMARK UNBOUND:                -0.708
REMARK  Name = ligand_1
REMARK                            x       y       z     vdW  Elec       q    Type
REMARK                         _______ _______ _______ _____ _____    ______ ____
ROOT
ATOM      2  N   LIG    1       54.661  58.337  38.314  0.00  0.00    -0.305 N 
ATOM      3  C   LIG    1       53.388  58.395  37.602  0.00  0.00    +0.108 C 
ATOM      4  C   LIG    1       53.135  59.838  37.150  0.00  0.00    +0.094 C 
ATOM      5  N   LIG    1       54.297  60.343  36.402  0.00  0.00    -0.270 NA
ATOM     18  C   LIG    1       55.569  60.268  37.108  0.00  0.00    +0.094 C 
ATOM     19  C   LIG    1       55.819  58.828  37.553  0.00  0.00    +0.108 C 
ENDROOT
BRANCH   2   1
ATOM      1  C   LIG    1       54.876  57.175  39.136  0.00  0.00    +0.051 A 
ATOM     20  C   LIG    1       55.578  56.037  38.675  0.00  0.00    +0.031 A 
ATOM     21  C   LIG    1       56.000  55.921  37.353  0.00  0.00    +0.003 A 
ATOM     22  C   LIG    1       56.685  54.788  36.924  0.00  0.00    +0.000 A 
ATOM     23  C   LIG    1       56.961  53.742  37.806  0.00  0.00    +0.002 A 
ATOM     24  C   LIG    1       56.549  53.842  39.131  0.00  0.00    +0.019 A 
ATOM     25  C   LIG    1       55.867  54.978  39.556  0.00  0.00    +0.082 A 
ATOM     26  N   LIG    1       55.471  55.032  40.839  0.00  0.00    -0.241 NA
ATOM     27  C   LIG    1       54.793  56.095  41.319  0.00  0.00    +0.154 A 
ATOM     32  C   LIG    1       54.497  57.188  40.489  0.00  0.00    +0.038 A 
BRANCH  27  28
ATOM     28  C   LIG    1       54.449  56.009  42.781  0.00  0.00    +0.435 C 
ATOM     29  F   LIG    1       54.944  54.888  43.267  0.00  0.00    -0.164 F 
ATOM     30  F   LIG    1       53.161  56.107  43.050  0.00  0.00    -0.164 F 
ATOM     31  F   LIG    1       55.074  57.005  43.371  0.00  0.00    -0.164 F 
ENDBRANCH  27  28
ENDBRANCH   2   1
BRANCH   5   6
ATOM      6  C   LIG    1       54.065  61.756  35.991  0.00  0.00    +0.077 C 
ATOM      7  C   LIG    1       53.379  61.872  34.621  0.00  0.00    +0.044 C 
ATOM      8  C   LIG    1       52.650  63.215  34.665  0.00  0.00    +0.150 C 
ATOM     16  N   LIG    1       52.391  63.435  36.084  0.00  0.00    -0.209 NA
ATOM     17  C   LIG    1       53.078  62.469  36.930  0.00  0.00    +0.105 C 
BRANCH   8   9
ATOM      9  C   LIG    1       51.401  63.251  33.804  0.00  0.00    +0.242 C 
ATOM     10  O   LIG    1       50.763  62.215  33.618  0.00  0.00    -0.273 OA
ATOM     11  N   LIG    1       51.032  64.446  33.323  0.00  0.00    -0.268 N 
ATOM     12  C   LIG    1       51.849  65.639  33.578  0.00  0.00    +0.106 C 
ATOM     13  C   LIG    1       51.233  66.895  32.952  0.00  0.00    +0.081 C 
ATOM     14  S   LIG    1       50.107  66.284  31.788  0.00  0.00    -0.117 S 
ATOM     15  C   LIG    1       49.831  64.690  32.513  0.00  0.00    +0.152 C 
ENDBRANCH   8   9
ENDBRANCH   5   6
TORSDOF 4
ENDMDL
MODEL 8
REMARK VINA RESULT:    -7.230      5.889      9.332
REMARK INTER + INTRA:          -9.629
REMARK INTER:                  -9.042
REMARK INTRA:                  -0.586
REMARK UNBOUND:                -0.708
REMARK  Name = ligand_1
REMARK                            x       y       z     vdW  Elec       q    Type
REMARK                         _______ _______ _______ _____ _____    ______ ____
ROOT
ATOM      2  N   LIG    1       49.026  62.731  35.632  0.00  0.00    -0.305 N 
ATOM      3  C   LIG    1       49.994  63.034  36.682  0.00  0.00    +0.108 C 
ATOM      4  C   LIG    1       49.546  62.360  37.983  0.00  0.00    +0.094 C 
ATOM      5  N   LIG    1       49.299  60.929  37.751  0.00  0.00    -0.270 NA
ATOM     18  C   LIG    1       48.345  60.628  36.692  0.00  0.00    +0.094 C 
ATOM     19  C   LIG    1       48.797  61.298  35.396  0.00  0.00    +0.108 C 
ENDROOT
BRANCH   2   1
ATOM      1  C   LIG    1       49.063  63.578  34.470  0.00  0.00    +0.051 A 
ATOM     20  C   LIG    1       47.904  63.901  33.727  0.00  0.00    +0.031 A 
ATOM     21  C   LIG    1       46.669  63.320  34.004  0.00  0.00    +0.003 A 
ATOM     22  C   LIG    1       45.545  63.652  33.254  0.00  0.00    +0.000 A 
ATOM     23  C   LIG    1       45.629  64.571  32.206  0.00  0.00    +0.002 A 
ATOM     24  C   LIG    1       46.854  65.163  31.917  0.00  0.00    +0.019 A 
ATOM     25  C   LIG    1       47.975  64.830  32.671  0.00  0.00    +0.082 A 
ATOM     26  N   LIG    1       49.144  65.411  32.353  0.00  0.00    -0.241 NA
ATOM     27  C   LIG    1       50.276  65.127  33.030  0.00  0.00    +0.154 A 
ATOM     32  C   LIG    1       50.258  64.223  34.104  0.00  0.00    +0.038 A 
BRANCH  27  28
ATOM     28  C   LIG    1       51.490  65.883  32.564  0.00  0.00    +0.435 C 
ATOM     29  F   LIG    1       52.564  65.167  32.833  0.00  0.00    -0.164 F 
ATOM     30  F   LIG    1       51.603  67.101  33.058  0.00  0.00    -0.164 F 
ATOM     31  F   LIG    1       51.394  65.972  31.254  0.00  0.00    -0.164 F 
ENDBRANCH  27  28
ENDBRANCH   2   1
BRANCH   5   6
ATOM      6  C   LIG    1       48.832  60.281  39.009  0.00  0.00    +0.077 C 
ATOM      7  C   LIG    1       49.428  58.879  39.212  0.00  0.00    +0.044 C 
ATOM      8  C   LIG    1       49.411  58.667  40.726  0.00  0.00    +0.150 C 
ATOM     16  N   LIG    1       49.475  60.016  41.277  0.00  0.00    -0.209 NA
ATOM     17  C   LIG    1       49.311  61.041  40.256  0.00  0.00    +0.105 C 
BRANCH   8   9
ATOM      9  C   LIG    1       50.518  57.753  41.218  0.00  0.00    +0.242 C 
ATOM     10  O   LIG    1       51.691  58.110  41.111  0.00  0.00    -0.273 OA
ATOM     11  N   LIG    1       50.142  56.604  41.796  0.00  0.00    -0.268 N 
ATOM     12  C   LIG    1       48.722  56.239  41.881  0.00  0.00    +0.106 C 
ATOM     13  C   LIG    1       48.521  54.898  42.595  0.00  0.00    +0.081 C 
ATOM     14  S   LIG    1       50.080  54.149  42.545  0.00  0.00    -0.117 S 
ATOM     15  C   LIG    1       51.062  55.616  42.376  0.00  0.00    +0.152 C 
ENDBRANCH   8   9
ENDBRANCH   5   6
TORSDOF 4
ENDMDL
MODEL 9
REMARK VINA RESULT:    -7.109      5.241      6.981
REMARK INTER + INTRA:          -9.479
REMARK INTER:                  -8.548
REMARK INTRA:                  -0.931
REMARK UNBOUND:                -0.708
REMARK  Name = ligand_1
REMARK                            x       y       z     vdW  Elec       q    Type
REMARK                         _______ _______ _______ _____ _____    ______ ____
ROOT
ATOM      2  N   LIG    1       51.927  59.407  37.795  0.00  0.00    -0.305 N 
ATOM      3  C   LIG    1       51.774  58.402  36.748  0.00  0.00    +0.108 C 
ATOM      4  C   LIG    1       51.453  59.105  35.424  0.00  0.00    +0.094 C 
ATOM      5  N   LIG    1       52.453  60.148  35.152  0.00  0.00    -0.270 NA
ATOM     18  C   LIG    1       52.616  61.141  36.206  0.00  0.00    +0.094 C 
ATOM     19  C   LIG    1       52.941  60.436  37.521  0.00  0.00    +0.108 C 
ENDROOT
BRANCH   2   1
ATOM      1  C   LIG    1       51.841  58.931  39.150  0.00  0.00    +0.051 A 
ATOM     20  C   LIG    1       50.796  59.309  40.024  0.00  0.00    +0.031 A 
ATOM     21  C   LIG    1       49.849  60.265  39.665  0.00  0.00    +0.003 A 
ATOM     22  C   LIG    1       48.832  60.622  40.546  0.00  0.00    +0.000 A 
ATOM     23  C   LIG    1       48.742  60.036  41.810  0.00  0.00    +0.002 A 
ATOM     24  C   LIG    1       49.678  59.077  42.184  0.00  0.00    +0.019 A 
ATOM     25  C   LIG    1       50.691  58.721  41.299  0.00  0.00    +0.082 A 
ATOM     26  N   LIG    1       51.586  57.803  41.702  0.00  0.00    -0.241 NA
ATOM     27  C   LIG    1       52.603  57.418  40.903  0.00  0.00    +0.154 A 
ATOM     32  C   LIG    1       52.743  57.958  39.615  0.00  0.00    +0.038 A 
BRANCH  27  28
ATOM     28  C   LIG    1       53.498  56.364  41.495  0.00  0.00    +0.435 C 
ATOM     29  F   LIG    1       54.717  56.530  41.023  0.00  0.00    -0.164 F 
ATOM     30  F   LIG    1       53.087  55.124  41.307  0.00  0.00    -0.164 F 
ATOM     31  F   LIG    1       53.541  56.595  42.790  0.00  0.00    -0.164 F 
ENDBRANCH  27  28
ENDBRANCH   2   1
BRANCH   5   6
ATOM      6  C   LIG    1       52.123  60.854  33.882  0.00  0.00    +0.077 C 
ATOM      7  C   LIG    1       50.718  61.476  33.896  0.00  0.00    +0.044 C 
ATOM      8  C   LIG    1       50.800  62.639  32.907  0.00  0.00    +0.150 C 
ATOM     16  N   LIG    1       52.208  63.020  32.918  0.00  0.00    -0.209 NA
ATOM     17  C   LIG    1       53.035  62.069  33.649  0.00  0.00    +0.105 C 
BRANCH   8   9
ATOM      9  C   LIG    1       49.857  63.780  33.239  0.00  0.00    +0.242 C 
ATOM     10  O   LIG    1       50.189  64.615  34.079  0.00  0.00    -0.273 OA
ATOM     11  N   LIG    1       48.710  63.838  32.548  0.00  0.00    -0.268 N 
ATOM     12  C   LIG    1       48.375  62.799  31.565  0.00  0.00    +0.106 C 
ATOM     13  C   LIG    1       47.031  63.072  30.883  0.00  0.00    +0.081 C 
ATOM     14  S   LIG    1       46.249  64.214  31.922  0.00  0.00    -0.117 S 
ATOM     15  C   LIG    1       47.695  64.891  32.692  0.00  0.00    +0.152 C 
ENDBRANCH   8   9
ENDBRANCH   5   6
TORSDOF 4
ENDMDL
