MODEL 1
REMARK VINA RESULT:    -8.108      0.000      0.000
REMARK INTER + INTRA:         -10.833
REMARK INTER:                 -10.004
REMARK INTRA:                  -0.829
REMARK UNBOUND:                -0.829
REMARK  Name = ligand_1
REMARK                            x       y       z     vdW  Elec       q    Type
REMARK                         _______ _______ _______ _____ _____    ______ ____
ROOT
ATOM      2  N   LIG    1       51.169  62.571  37.523  0.00  0.00    -0.305 N 
ATOM      3  C   LIG    1       50.737  63.339  38.687  0.00  0.00    +0.108 C 
ATOM      4  C   LIG    1       49.577  62.604  39.367  0.00  0.00    +0.094 C 
ATOM      5  N   LIG    1       49.955  61.209  39.640  0.00  0.00    -0.270 NA
ATOM     18  C   LIG    1       50.402  60.449  38.481  0.00  0.00    +0.094 C 
ATOM     19  C   LIG    1       51.561  61.183  37.809  0.00  0.00    +0.108 C 
ENDROOT
BRANCH   2   1
ATOM      1  C   LIG    1       51.964  63.279  36.555  0.00  0.00    +0.051 A 
ATOM     20  C   LIG    1       51.396  63.930  35.435  0.00  0.00    +0.031 A 
ATOM     21  C   LIG    1       50.041  63.823  35.133  0.00  0.00    +0.003 A 
ATOM     22  C   LIG    1       49.508  64.471  34.023  0.00  0.00    +0.000 A 
ATOM     23  C   LIG    1       50.319  65.237  33.184  0.00  0.00    +0.002 A 
ATOM     24  C   LIG    1       51.675  65.356  33.471  0.00  0.00    +0.019 A 
ATOM     25  C   LIG    1       52.202  64.710  34.585  0.00  0.00    +0.082 A 
ATOM     26  N   LIG    1       53.519  64.837  34.821  0.00  0.00    -0.241 NA
ATOM     27  C   LIG    1       54.104  64.227  35.874  0.00  0.00    +0.154 A 
ATOM     32  C   LIG    1       53.343  63.454  36.765  0.00  0.00    +0.038 A 
BRANCH  27  28
ATOM     28  C   LIG    1       55.578  64.493  36.010  0.00  0.00    +0.435 C 
ATOM     29  F   LIG    1       56.240  63.435  35.587  0.00  0.00    -0.164 F 
ATOM     30  F   LIG    1       55.966  64.834  37.225  0.00  0.00    -0.164 F 
ATOM     31  F   LIG    1       55.856  65.486  35.192  0.00  0.00    -0.164 F 
ENDBRANCH  27  28
ENDBRANCH   2   1
BRANCH   5   6
ATOM      6  C   LIG    1       48.816  60.486  40.272  0.00  0.00    +0.077 C 
ATOM      7  C   LIG    1       48.535  59.128  39.611  0.00  0.00    +0.044 C 
ATOM      8  C   LIG    1       47.874  58.292  40.708  0.00  0.00    +0.150 C 
ATOM     16  N   LIG    1       48.384  58.865  41.949  0.00  0.00    -0.209 NA
ATOM     17  C   LIG    1       49.119  60.102  41.729  0.00  0.00    +0.105 C 
BRANCH   8   9
ATOM      9  C   LIG    1       48.134  56.804  40.570  0.00  0.00    +0.242 C 
ATOM     10  O   LIG    1       49.199  56.335  40.969  0.00  0.00    -0.273 OA
ATOM     11  N   LIG    1       47.145  56.062  40.052  0.00  0.00    -0.268 N 
ATOM     12  C   LIG    1       45.902  56.692  39.588  0.00  0.00    +0.106 C 
ATOM     13  C   LIG    1       44.905  55.659  39.052  0.00  0.00    +0.081 C 
ATOM     14  S   LIG    1       45.868  54.251  38.756  0.00  0.00    -0.117 S 
ATOM     15  C   LIG    1       47.189  54.603  39.885  0.00  0.00    +0.152 C 
ENDBRANCH   8   9
ENDBRANCH   5   6
TORSDOF 4
ENDMDL
MODEL 2
REMARK VINA RESULT:    -7.596      2.027      2.340
REMARK INTER + INTRA:         -10.201
REMARK INTER:                  -9.925
REMARK INTRA:                  -0.276
REMARK UNBOUND:                -0.829
REMARK  Name = ligand_1
REMARK                            x       y       z     vdW  Elec       q    Type
REMARK                         _______ _______ _______ _____ _____    ______ ____
ROOT
ATOM      2  N   LIG    1       50.976  62.391  37.193  0.00  0.00    -0.305 N 
ATOM      3  C   LIG    1       50.059  61.439  36.573  0.00  0.00    +0.108 C 
ATOM      4  C   LIG    1       49.605  60.424  37.627  0.00  0.00    +0.094 C 
ATOM      5  N   LIG    1       49.079  61.125  38.809  0.00  0.00    -0.270 NA
ATOM     18  C   LIG    1       49.989  62.087  39.416  0.00  0.00    +0.094 C 
ATOM     19  C   LIG    1       50.435  63.099  38.363  0.00  0.00    +0.108 C 
ENDROOT
BRANCH   2   1
ATOM      1  C   LIG    1       51.795  63.162  36.296  0.00  0.00    +0.051 A 
ATOM     20  C   LIG    1       51.254  63.894  35.213  0.00  0.00    +0.031 A 
ATOM     21  C   LIG    1       49.906  63.814  34.874  0.00  0.00    +0.003 A 
ATOM     22  C   LIG    1       49.400  64.541  33.800  0.00  0.00    +0.000 A 
ATOM     23  C   LIG    1       50.233  65.361  33.036  0.00  0.00    +0.002 A 
ATOM     24  C   LIG    1       51.582  65.454  33.362  0.00  0.00    +0.019 A 
ATOM     25  C   LIG    1       52.082  64.728  34.438  0.00  0.00    +0.082 A 
ATOM     26  N   LIG    1       53.394  64.832  34.713  0.00  0.00    -0.241 NA
ATOM     27  C   LIG    1       53.952  64.146  35.732  0.00  0.00    +0.154 A 
ATOM     32  C   LIG    1       53.169  63.315  36.549  0.00  0.00    +0.038 A 
BRANCH  27  28
ATOM     28  C   LIG    1       55.424  64.395  35.920  0.00  0.00    +0.435 C 
ATOM     29  F   LIG    1       56.079  63.282  35.656  0.00  0.00    -0.164 F 
ATOM     30  F   LIG    1       55.756  64.863  37.109  0.00  0.00    -0.164 F 
ATOM     31  F   LIG    1       55.771  65.283  35.013  0.00  0.00    -0.164 F 
ENDBRANCH  27  28
ENDBRANCH   2   1
BRANCH   5   6
ATOM      6  C   LIG    1       48.668  60.139  39.847  0.00  0.00    +0.077 C 
ATOM      7  C   LIG    1       49.453  58.821  39.759  0.00  0.00    +0.044 C 
ATOM      8  C   LIG    1       49.415  58.252  41.177  0.00  0.00    +0.150 C 
ATOM     16  N   LIG    1       49.264  59.426  42.030  0.00  0.00    -0.209 NA
ATOM     17  C   LIG    1       48.988  60.635  41.266  0.00  0.00    +0.105 C 
BRANCH   8   9
ATOM      9  C   LIG    1       50.625  57.402  41.518  0.00  0.00    +0.242 C 
ATOM     10  O   LIG    1       51.754  57.870  41.372  0.00  0.00    -0.273 OA
ATOM     11  N   LIG    1       50.387  56.180  42.012  0.00  0.00    -0.268 N 
ATOM     12  C   LIG    1       49.011  55.684  42.150  0.00  0.00    +0.106 C 
ATOM     13  C   LIG    1       48.971  54.275  42.751  0.00  0.00    +0.081 C 
ATOM     14  S   LIG    1       50.580  53.675  42.541  0.00  0.00    -0.117 S 
ATOM     15  C   LIG    1       51.423  55.232  42.445  0.00  0.00    +0.152 C 
ENDBRANCH   8   9
ENDBRANCH   5   6
TORSDOF 4
ENDMDL
MODEL 3
REMARK VINA RESULT:    -7.544      8.561     11.008
REMARK INTER + INTRA:         -10.137
REMARK INTER:                  -9.387
REMARK INTRA:                  -0.750
REMARK UNBOUND:                -0.829
REMARK  Name = ligand_1
REMARK                            x       y       z     vdW  Elec       q    Type
REMARK                         _______ _______ _______ _____ _____    ______ ____
ROOT
ATOM      2  N   LIG    1       55.345  55.751  39.683  0.00  0.00    -0.305 N 
ATOM      3  C   LIG    1       55.861  54.399  39.495  0.00  0.00    +0.108 C 
ATOM      4  C   LIG    1       56.193  54.193  38.013  0.00  0.00    +0.094 C 
ATOM      5  N   LIG    1       57.073  55.272  37.539  0.00  0.00    -0.270 NA
ATOM     18  C   LIG    1       56.564  56.622  37.743  0.00  0.00    +0.094 C 
ATOM     19  C   LIG    1       56.239  56.824  39.221  0.00  0.00    +0.108 C 
ENDROOT
BRANCH   2   1
ATOM      1  C   LIG    1       54.627  55.993  40.906  0.00  0.00    +0.051 A 
ATOM     20  C   LIG    1       53.411  56.714  40.944  0.00  0.00    +0.031 A 
ATOM     21  C   LIG    1       52.895  57.342  39.813  0.00  0.00    +0.003 A 
ATOM     22  C   LIG    1       51.699  58.050  39.878  0.00  0.00    +0.000 A 
ATOM     23  C   LIG    1       50.992  58.151  41.078  0.00  0.00    +0.002 A 
ATOM     24  C   LIG    1       51.492  57.528  42.217  0.00  0.00    +0.019 A 
ATOM     25  C   LIG    1       52.687  56.819  42.146  0.00  0.00    +0.082 A 
ATOM     26  N   LIG    1       53.145  56.244  43.271  0.00  0.00    -0.241 NA
ATOM     27  C   LIG    1       54.304  55.552  43.282  0.00  0.00    +0.154 A 
ATOM     32  C   LIG    1       55.056  55.400  42.106  0.00  0.00    +0.038 A 
BRANCH  27  28
ATOM     28  C   LIG    1       54.660  54.950  44.614  0.00  0.00    +0.435 C 
ATOM     29  F   LIG    1       55.941  54.640  44.609  0.00  0.00    -0.164 F 
ATOM     30  F   LIG    1       53.927  53.909  44.960  0.00  0.00    -0.164 F 
ATOM     31  F   LIG    1       54.486  55.898  45.510  0.00  0.00    -0.164 F 
ENDBRANCH  27  28
ENDBRANCH   2   1
BRANCH   5   6
ATOM      6  C   LIG    1       57.369  55.090  36.090  0.00  0.00    +0.077 C 
ATOM      7  C   LIG    1       56.238  54.373  35.338  0.00  0.00    +0.044 C 
ATOM      8  C   LIG    1       56.373  54.848  33.891  0.00  0.00    +0.150 C 
ATOM     16  N   LIG    1       57.009  56.157  34.002  0.00  0.00    -0.209 NA
ATOM     17  C   LIG    1       57.472  56.436  35.354  0.00  0.00    +0.105 C 
BRANCH   8   9
ATOM      9  C   LIG    1       55.055  54.872  33.139  0.00  0.00    +0.242 C 
ATOM     10  O   LIG    1       54.011  55.090  33.752  0.00  0.00    -0.273 OA
ATOM     11  N   LIG    1       55.112  54.695  31.812  0.00  0.00    -0.268 N 
ATOM     12  C   LIG    1       56.395  54.430  31.147  0.00  0.00    +0.106 C 
ATOM     13  C   LIG    1       56.230  54.278  29.631  0.00  0.00    +0.081 C 
ATOM     14  S   LIG    1       54.539  53.984  29.413  0.00  0.00    -0.117 S 
ATOM     15  C   LIG    1       53.954  54.733  30.909  0.00  0.00    +0.152 C 
ENDBRANCH   8   9
ENDBRANCH   5   6
TORSDOF 4
ENDMDL
MODEL 4
REMARK VINA RESULT:    -7.519      2.913      3.925
REMARK INTER + INTRA:         -10.106
REMARK INTER:                  -9.524
REMARK INTRA:                  -0.582
REMARK UNBOUND:                -0.829
REMARK  Name = ligand_1
REMARK                            x       y       z     vdW  Elec       q    Type
REMARK                         _______ _______ _______ _____ _____    ______ ____
ROOT
ATOM      2  N   LIG    1       50.590  63.011  36.590  0.00  0.00    -0.305 N 
ATOM      3  C   LIG    1       49.249  62.621  36.165  0.00  0.00    +0.108 C 
ATOM      4  C   LIG    1       48.783  61.431  37.012  0.00  0.00    +0.094 C 
ATOM      5  N   LIG    1       48.923  61.745  38.442  0.00  0.00    -0.270 NA
ATOM     18  C   LIG    1       50.259  62.151  38.861  0.00  0.00    +0.094 C 
ATOM     19  C   LIG    1       50.716  63.339  38.018  0.00  0.00    +0.108 C 
ENDROOT
BRANCH   2   1
ATOM      1  C   LIG    1       51.332  63.833  35.672  0.00  0.00    +0.051 A 
ATOM     20  C   LIG    1       52.745  63.825  35.616  0.00  0.00    +0.031 A 
ATOM     21  C   LIG    1       53.512  63.109  36.532  0.00  0.00    +0.003 A 
ATOM     22  C   LIG    1       54.901  63.121  36.458  0.00  0.00    +0.000 A 
ATOM     23  C   LIG    1       55.559  63.853  35.468  0.00  0.00    +0.002 A 
ATOM     24  C   LIG    1       54.809  64.573  34.543  0.00  0.00    +0.019 A 
ATOM     25  C   LIG    1       53.420  64.555  34.619  0.00  0.00    +0.082 A 
ATOM     26  N   LIG    1       52.730  65.275  33.717  0.00  0.00    -0.241 NA
ATOM     27  C   LIG    1       51.382  65.317  33.738  0.00  0.00    +0.154 A 
ATOM     32  C   LIG    1       50.659  64.591  34.698  0.00  0.00    +0.038 A 
BRANCH  27  28
ATOM     28  C   LIG    1       50.765  66.146  32.644  0.00  0.00    +0.435 C 
ATOM     29  F   LIG    1       51.055  67.414  32.860  0.00  0.00    -0.164 F 
ATOM     30  F   LIG    1       49.464  65.981  32.496  0.00  0.00    -0.164 F 
ATOM     31  F   LIG    1       51.360  65.789  31.526  0.00  0.00    -0.164 F 
ENDBRANCH  27  28
ENDBRANCH   2   1
BRANCH   5   6
ATOM      6  C   LIG    1       48.502  60.577  39.265  0.00  0.00    +0.077 C 
ATOM      7  C   LIG    1       49.505  59.415  39.204  0.00  0.00    +0.044 C 
ATOM      8  C   LIG    1       49.302  58.659  40.518  0.00  0.00    +0.150 C 
ATOM     16  N   LIG    1       48.794  59.670  41.438  0.00  0.00    -0.209 NA
ATOM     17  C   LIG    1       48.461  60.918  40.763  0.00  0.00    +0.105 C 
BRANCH   8   9
ATOM      9  C   LIG    1       50.555  57.960  41.011  0.00  0.00    +0.242 C 
ATOM     10  O   LIG    1       51.646  58.516  40.890  0.00  0.00    -0.273 OA
ATOM     11  N   LIG    1       50.391  56.770  41.604  0.00  0.00    -0.268 N 
ATOM     12  C   LIG    1       49.057  56.162  41.705  0.00  0.00    +0.106 C 
ATOM     13  C   LIG    1       49.099  54.815  42.434  0.00  0.00    +0.081 C 
ATOM     14  S   LIG    1       50.765  54.351  42.380  0.00  0.00    -0.117 S 
ATOM     15  C   LIG    1       51.473  55.965  42.187  0.00  0.00    +0.152 C 
ENDBRANCH   8   9
ENDBRANCH   5   6
TORSDOF 4
ENDMDL
MODEL 5
REMARK VINA RESULT:    -7.448      6.518     10.139
REMARK INTER + INTRA:         -10.018
REMARK INTER:                  -9.430
REMARK INTRA:                  -0.588
REMARK UNBOUND:                -0.829
REMARK  Name = ligand_1
REMARK                            x       y       z     vdW  Elec       q    Type
REMARK                         _______ _______ _______ _____ _____    ______ ____
ROOT
ATOM      2  N   LIG    1       53.548  57.928  38.724  0.00  0.00    -0.305 N 
ATOM      3  C   LIG    1       54.473  59.030  38.478  0.00  0.00    +0.108 C 
ATOM      4  C   LIG    1       54.059  59.752  37.192  0.00  0.00    +0.094 C 
ATOM      5  N   LIG    1       52.638  60.129  37.260  0.00  0.00    -0.270 NA
ATOM     18  C   LIG    1       51.718  59.031  37.523  0.00  0.00    +0.094 C 
ATOM     19  C   LIG    1       52.132  58.317  38.807  0.00  0.00    +0.108 C 
ENDROOT
BRANCH   2   1
ATOM      1  C   LIG    1       53.994  56.917  39.646  0.00  0.00    +0.051 A 
ATOM     20  C   LIG    1       54.823  55.842  39.251  0.00  0.00    +0.031 A 
ATOM     21  C   LIG    1       55.160  55.626  37.917  0.00  0.00    +0.003 A 
ATOM     22  C   LIG    1       55.974  54.557  37.555  0.00  0.00    +0.000 A 
ATOM     23  C   LIG    1       56.467  53.675  38.518  0.00  0.00    +0.002 A 
ATOM     24  C   LIG    1       56.142  53.877  39.856  0.00  0.00    +0.019 A 
ATOM     25  C   LIG    1       55.331  54.949  40.213  0.00  0.00    +0.082 A 
ATOM     26  N   LIG    1       55.026  55.102  41.513  0.00  0.00    -0.241 NA
ATOM     27  C   LIG    1       54.233  56.110  41.933  0.00  0.00    +0.154 A 
ATOM     32  C   LIG    1       53.716  57.041  41.018  0.00  0.00    +0.038 A 
BRANCH  27  28
ATOM     28  C   LIG    1       54.013  56.154  43.421  0.00  0.00    +0.435 C 
ATOM     29  F   LIG    1       54.915  56.951  43.958  0.00  0.00    -0.164 F 
ATOM     30  F   LIG    1       54.018  54.975  44.013  0.00  0.00    -0.164 F 
ATOM     31  F   LIG    1       52.834  56.708  43.607  0.00  0.00    -0.164 F 
ENDBRANCH  27  28
ENDBRANCH   2   1
BRANCH   5   6
ATOM      6  C   LIG    1       52.227  60.802  35.996  0.00  0.00    +0.077 C 
ATOM      7  C   LIG    1       51.541  62.155  36.239  0.00  0.00    +0.044 C 
ATOM      8  C   LIG    1       51.795  62.954  34.961  0.00  0.00    +0.150 C 
ATOM     16  N   LIG    1       53.029  62.389  34.425  0.00  0.00    -0.209 NA
ATOM     17  C   LIG    1       53.439  61.182  35.131  0.00  0.00    +0.105 C 
BRANCH   8   9
ATOM      9  C   LIG    1       51.859  64.452  35.189  0.00  0.00    +0.242 C 
ATOM     10  O   LIG    1       52.139  64.884  36.306  0.00  0.00    -0.273 OA
ATOM     11  N   LIG    1       51.646  65.236  34.123  0.00  0.00    -0.268 N 
ATOM     12  C   LIG    1       51.306  64.650  32.819  0.00  0.00    +0.106 C 
ATOM     13  C   LIG    1       51.123  65.725  31.742  0.00  0.00    +0.081 C 
ATOM     14  S   LIG    1       50.899  67.190  32.635  0.00  0.00    -0.117 S 
ATOM     15  C   LIG    1       51.712  66.704  34.133  0.00  0.00    +0.152 C 
ENDBRANCH   8   9
ENDBRANCH   5   6
TORSDOF 4
ENDMDL
MODEL 6
REMARK VINA RESULT:    -7.274      6.511     10.003
REMARK INTER + INTRA:          -9.803
REMARK INTER:                  -9.668
REMARK INTRA:                  -0.135
REMARK UNBOUND:                -0.829
REMARK  Name = ligand_1
REMARK                            x       y       z     vdW  Elec       q    Type
REMARK                         _______ _______ _______ _____ _____    ______ ____
ROOT
ATOM      2  N   LIG    1       54.624  58.546  38.182  0.00  0.00    -0.305 N 
ATOM      3  C   LIG    1       53.385  58.577  37.412  0.00  0.00    +0.108 C 
ATOM      4  C   LIG    1       53.092  60.022  36.996  0.00  0.00    +0.094 C 
ATOM      5  N   LIG    1       54.264  60.601  36.321  0.00  0.00    -0.270 NA
ATOM     18  C   LIG    1       55.504  60.553  37.085  0.00  0.00    +0.094 C 
ATOM     19  C   LIG    1       55.794  59.111  37.493  0.00  0.00    +0.108 C 
ENDROOT
BRANCH   2   1
ATOM      1  C   LIG    1       54.851  57.366  38.975  0.00  0.00    +0.051 A 
ATOM     20  C   LIG    1       55.579  56.254  38.492  0.00  0.00    +0.031 A 
ATOM     21  C   LIG    1       56.019  56.182  37.173  0.00  0.00    +0.003 A 
ATOM     22  C   LIG    1       56.731  55.074  36.723  0.00  0.00    +0.000 A 
ATOM     23  C   LIG    1       57.014  54.009  37.580  0.00  0.00    +0.002 A 
ATOM     24  C   LIG    1       56.584  54.065  38.901  0.00  0.00    +0.019 A 
ATOM     25  C   LIG    1       55.876  55.177  39.348  0.00  0.00    +0.082 A 
ATOM     26  N   LIG    1       55.464  55.189  40.627  0.00  0.00    -0.241 NA
ATOM     27  C   LIG    1       54.760  56.226  41.127  0.00  0.00    +0.154 A 
ATOM     32  C   LIG    1       54.454  57.335  40.323  0.00  0.00    +0.038 A 
BRANCH  27  28
ATOM     28  C   LIG    1       54.399  56.093  42.581  0.00  0.00    +0.435 C 
ATOM     29  F   LIG    1       53.099  56.265  42.713  0.00  0.00    -0.164 F 
ATOM     30  F   LIG    1       55.063  56.900  43.388  0.00  0.00    -0.164 F 
ATOM     31  F   LIG    1       54.670  54.851  42.921  0.00  0.00    -0.164 F 
ENDBRANCH  27  28
ENDBRANCH   2   1
BRANCH   5   6
ATOM      6  C   LIG    1       53.991  62.016  35.946  0.00  0.00    +0.077 C 
ATOM      7  C   LIG    1       53.312  62.147  34.574  0.00  0.00    +0.044 C 
ATOM      8  C   LIG    1       52.541  63.465  34.648  0.00  0.00    +0.150 C 
ATOM     16  N   LIG    1       52.266  63.640  36.070  0.00  0.00    -0.209 NA
ATOM     17  C   LIG    1       52.976  62.673  36.896  0.00  0.00    +0.105 C 
BRANCH   8   9
ATOM      9  C   LIG    1       51.297  63.485  33.779  0.00  0.00    +0.242 C 
ATOM     10  O   LIG    1       50.679  62.440  33.582  0.00  0.00    -0.273 OA
ATOM     11  N   LIG    1       50.910  64.677  33.303  0.00  0.00    -0.268 N 
ATOM     12  C   LIG    1       51.705  65.883  33.572  0.00  0.00    +0.106 C 
ATOM     13  C   LIG    1       51.071  67.132  32.951  0.00  0.00    +0.081 C 
ATOM     14  S   LIG    1       49.964  66.510  31.775  0.00  0.00    -0.117 S 
ATOM     15  C   LIG    1       49.711  64.906  32.487  0.00  0.00    +0.152 C 
ENDBRANCH   8   9
ENDBRANCH   5   6
TORSDOF 4
ENDMDL
MODEL 7
REMARK VINA RESULT:    -7.010      5.046      8.826
REMARK INTER + INTRA:          -9.479
REMARK INTER:                  -8.548
REMARK INTRA:                  -0.931
REMARK UNBOUND:                -0.829
REMARK  Name = ligand_1
REMARK                            x       y       z     vdW  Elec       q    Type
REMARK                         _______ _______ _______ _____ _____    ______ ____
ROOT
ATOM      2  N   LIG    1       51.927  59.407  37.795  0.00  0.00    -0.305 N 
ATOM      3  C   LIG    1       51.774  58.402  36.748  0.00  0.00    +0.108 C 
ATOM      4  C   LIG    1       51.453  59.105  35.424  0.00  0.00    +0.094 C 
ATOM      5  N   LIG    1       52.453  60.148  35.152  0.00  0.00    -0.270 NA
ATOM     18  C   LIG    1       52.616  61.141  36.206  0.00  0.00    +0.094 C 
ATOM     19  C   LIG    1       52.941  60.436  37.521  0.00  0.00    +0.108 C 
ENDROOT
BRANCH   2   1
ATOM      1  C   LIG    1       51.841  58.931  39.150  0.00  0.00    +0.051 A 
ATOM     20  C   LIG    1       50.796  59.309  40.024  0.00  0.00    +0.031 A 
ATOM     21  C   LIG    1       49.849  60.265  39.665  0.00  0.00    +0.003 A 
ATOM     22  C   LIG    1       48.832  60.622  40.546  0.00  0.00    +0.000 A 
ATOM     23  C   LIG    1       48.742  60.036  41.810  0.00  0.00    +0.002 A 
ATOM     24  C   LIG    1       49.678  59.077  42.184  0.00  0.00    +0.019 A 
ATOM     25  C   LIG    1       50.691  58.721  41.299  0.00  0.00    +0.082 A 
ATOM     26  N   LIG    1       51.586  57.803  41.702  0.00  0.00    -0.241 NA
ATOM     27  C   LIG    1       52.603  57.418  40.903  0.00  0.00    +0.154 A 
ATOM     32  C   LIG    1       52.743  57.958  39.615  0.00  0.00    +0.038 A 
BRANCH  27  28
ATOM     28  C   LIG    1       53.498  56.364  41.495  0.00  0.00    +0.435 C 
ATOM     29  F   LIG    1       54.717  56.530  41.023  0.00  0.00    -0.164 F 
ATOM     30  F   LIG    1       53.087  55.124  41.307  0.00  0.00    -0.164 F 
ATOM     31  F   LIG    1       53.541  56.595  42.790  0.00  0.00    -0.164 F 
ENDBRANCH  27  28
ENDBRANCH   2   1
BRANCH   5   6
ATOM      6  C   LIG    1       52.123  60.854  33.882  0.00  0.00    +0.077 C 
ATOM      7  C   LIG    1       50.718  61.476  33.896  0.00  0.00    +0.044 C 
ATOM      8  C   LIG    1       50.800  62.639  32.907  0.00  0.00    +0.150 C 
ATOM     16  N   LIG    1       52.208  63.020  32.918  0.00  0.00    -0.209 NA
ATOM     17  C   LIG    1       53.035  62.069  33.649  0.00  0.00    +0.105 C 
BRANCH   8   9
ATOM      9  C   LIG    1       49.857  63.780  33.239  0.00  0.00    +0.242 C 
ATOM     10  O   LIG    1       50.189  64.615  34.079  0.00  0.00    -0.273 OA
ATOM     11  N   LIG    1       48.710  63.838  32.548  0.00  0.00    -0.268 N 
ATOM     12  C   LIG    1       48.375  62.799  31.565  0.00  0.00    +0.106 C 
ATOM     13  C   LIG    1       47.031  63.072  30.883  0.00  0.00    +0.081 C 
ATOM     14  S   LIG    1       46.249  64.214  31.922  0.00  0.00    -0.117 S 
ATOM     15  C   LIG    1       47.695  64.891  32.692  0.00  0.00    +0.152 C 
ENDBRANCH   8   9
ENDBRANCH   5   6
TORSDOF 4
ENDMDL
MODEL 8
REMARK VINA RESULT:    -6.906      5.440      9.585
REMARK INTER + INTRA:          -9.350
REMARK INTER:                  -8.702
REMARK INTRA:                  -0.648
REMARK UNBOUND:                -0.829
REMARK  Name = ligand_1
REMARK                            x       y       z     vdW  Elec       q    Type
REMARK                         _______ _______ _______ _____ _____    ______ ____
ROOT
ATOM      2  N   LIG    1       52.447  59.269  38.720  0.00  0.00    -0.305 N 
ATOM      3  C   LIG    1       51.545  59.172  37.577  0.00  0.00    +0.108 C 
ATOM      4  C   LIG    1       51.947  60.221  36.534  0.00  0.00    +0.094 C 
ATOM      5  N   LIG    1       53.378  60.095  36.217  0.00  0.00    -0.270 NA
ATOM     18  C   LIG    1       54.275  60.175  37.362  0.00  0.00    +0.094 C 
ATOM     19  C   LIG    1       53.874  59.126  38.396  0.00  0.00    +0.108 C 
ENDROOT
BRANCH   2   1
ATOM      1  C   LIG    1       51.997  58.650  39.939  0.00  0.00    +0.051 A 
ATOM     20  C   LIG    1       50.841  59.083  40.629  0.00  0.00    +0.031 A 
ATOM     21  C   LIG    1       50.134  60.217  40.238  0.00  0.00    +0.003 A 
ATOM     22  C   LIG    1       49.002  60.624  40.939  0.00  0.00    +0.000 A 
ATOM     23  C   LIG    1       48.554  59.909  42.050  0.00  0.00    +0.002 A 
ATOM     24  C   LIG    1       49.247  58.772  42.454  0.00  0.00    +0.019 A 
ATOM     25  C   LIG    1       50.376  58.367  41.749  0.00  0.00    +0.082 A 
ATOM     26  N   LIG    1       51.027  57.273  42.178  0.00  0.00    -0.241 NA
ATOM     27  C   LIG    1       52.138  56.829  41.553  0.00  0.00    +0.154 A 
ATOM     32  C   LIG    1       52.634  57.493  40.420  0.00  0.00    +0.038 A 
BRANCH  27  28
ATOM     28  C   LIG    1       52.729  55.578  42.143  0.00  0.00    +0.435 C 
ATOM     29  F   LIG    1       51.748  54.785  42.526  0.00  0.00    -0.164 F 
ATOM     30  F   LIG    1       53.578  55.784  43.133  0.00  0.00    -0.164 F 
ATOM     31  F   LIG    1       53.370  54.971  41.166  0.00  0.00    -0.164 F 
ENDBRANCH  27  28
ENDBRANCH   2   1
BRANCH   5   6
ATOM      6  C   LIG    1       53.776  61.136  35.228  0.00  0.00    +0.077 C 
ATOM      7  C   LIG    1       52.660  62.157  34.959  0.00  0.00    +0.044 C 
ATOM      8  C   LIG    1       53.393  63.422  34.513  0.00  0.00    +0.150 C 
ATOM     16  N   LIG    1       54.704  63.317  35.143  0.00  0.00    -0.209 NA
ATOM     17  C   LIG    1       54.925  62.012  35.752  0.00  0.00    +0.105 C 
BRANCH   8   9
ATOM      9  C   LIG    1       52.651  64.701  34.857  0.00  0.00    +0.242 C 
ATOM     10  O   LIG    1       52.665  65.116  36.015  0.00  0.00    -0.273 OA
ATOM     11  N   LIG    1       52.049  65.342  33.847  0.00  0.00    -0.268 N 
ATOM     12  C   LIG    1       52.066  64.781  32.489  0.00  0.00    +0.106 C 
ATOM     13  C   LIG    1       51.335  65.686  31.491  0.00  0.00    +0.081 C 
ATOM     14  S   LIG    1       50.371  66.726  32.482  0.00  0.00    -0.117 S 
ATOM     15  C   LIG    1       51.326  66.615  33.972  0.00  0.00    +0.152 C 
ENDBRANCH   8   9
ENDBRANCH   5   6
TORSDOF 4
ENDMDL
MODEL 9
REMARK VINA RESULT:    -6.599      3.671      4.703
REMARK INTER + INTRA:          -8.971
REMARK INTER:                  -8.658
REMARK INTRA:                  -0.313
REMARK UNBOUND:                -0.829
REMARK  Name = ligand_1
REMARK                            x       y       z     vdW  Elec       q    Type
REMARK                         _______ _______ _______ _____ _____    ______ ____
ROOT
ATOM      2  N   LIG    1       49.374  62.161  35.891  0.00  0.00    -0.305 N 
ATOM      3  C   LIG    1       49.601  60.789  35.448  0.00  0.00    +0.108 C 
ATOM      4  C   LIG    1       49.961  59.925  36.662  0.00  0.00    +0.094 C 
ATOM      5  N   LIG    1       48.945  60.086  37.714  0.00  0.00    -0.270 NA
ATOM     18  C   LIG    1       48.708  61.458  38.143  0.00  0.00    +0.094 C 
ATOM     19  C   LIG    1       48.345  62.313  36.931  0.00  0.00    +0.108 C 
ENDROOT
BRANCH   2   1
ATOM      1  C   LIG    1       49.412  63.173  34.869  0.00  0.00    +0.051 A 
ATOM     20  C   LIG    1       48.306  63.450  34.032  0.00  0.00    +0.031 A 
ATOM     21  C   LIG    1       47.150  62.675  34.064  0.00  0.00    +0.003 A 
ATOM     22  C   LIG    1       46.077  62.967  33.226  0.00  0.00    +0.000 A 
ATOM     23  C   LIG    1       46.138  64.038  32.333  0.00  0.00    +0.002 A 
ATOM     24  C   LIG    1       47.285  64.824  32.289  0.00  0.00    +0.019 A 
ATOM     25  C   LIG    1       48.353  64.531  33.131  0.00  0.00    +0.082 A 
ATOM     26  N   LIG    1       49.450  65.303  33.050  0.00  0.00    -0.241 NA
ATOM     27  C   LIG    1       50.530  65.071  33.824  0.00  0.00    +0.154 A 
ATOM     32  C   LIG    1       50.529  64.019  34.754  0.00  0.00    +0.038 A 
BRANCH  27  28
ATOM     28  C   LIG    1       51.661  66.043  33.628  0.00  0.00    +0.435 C 
ATOM     29  F   LIG    1       52.288  65.743  32.508  0.00  0.00    -0.164 F 
ATOM     30  F   LIG    1       52.510  66.110  34.636  0.00  0.00    -0.164 F 
ATOM     31  F   LIG    1       51.111  67.228  33.468  0.00  0.00    -0.164 F 
ENDBRANCH  27  28
ENDBRANCH   2   1
BRANCH   5   6
ATOM      6  C   LIG    1       49.313  59.272  38.906  0.00  0.00    +0.077 C 
ATOM      7  C   LIG    1       50.507  58.342  38.646  0.00  0.00    +0.044 C 
ATOM      8  C   LIG    1       51.136  58.125  40.023  0.00  0.00    +0.150 C 
ATOM     16  N   LIG    1       50.774  59.322  40.774  0.00  0.00    -0.209 NA
ATOM     17  C   LIG    1       49.807  60.150  40.067  0.00  0.00    +0.105 C 
BRANCH   8   9
ATOM      9  C   LIG    1       52.630  57.866  39.969  0.00  0.00    +0.242 C 
ATOM     10  O   LIG    1       53.313  58.432  39.116  0.00  0.00    -0.273 OA
ATOM     11  N   LIG    1       53.138  57.054  40.906  0.00  0.00    -0.268 N 
ATOM     12  C   LIG    1       52.260  56.405  41.889  0.00  0.00    +0.106 C 
ATOM     13  C   LIG    1       53.051  55.537  42.873  0.00  0.00    +0.081 C 
ATOM     14  S   LIG    1       54.578  55.292  42.095  0.00  0.00    -0.117 S 
ATOM     15  C   LIG    1       54.562  56.722  41.047  0.00  0.00    +0.152 C 
ENDBRANCH   8   9
ENDBRANCH   5   6
TORSDOF 4
ENDMDL
