MODEL 1
REMARK VINA RESULT:    -8.064      0.000      0.000
REMARK INTER + INTRA:         -10.637
REMARK INTER:                  -9.950
REMARK INTRA:                  -0.687
REMARK UNBOUND:                -0.687
REMARK  Name = ligand_1
REMARK                            x       y       z     vdW  Elec       q    Type
REMARK                         _______ _______ _______ _____ _____    ______ ____
ROOT
ATOM      2  N   LIG    1       51.134  62.584  37.535  0.00  0.00    -0.305 N 
ATOM      3  C   LIG    1       50.768  63.357  38.717  0.00  0.00    +0.108 C 
ATOM      4  C   LIG    1       49.598  62.665  39.424  0.00  0.00    +0.094 C 
ATOM      5  N   LIG    1       49.924  61.252  39.674  0.00  0.00    -0.270 NA
ATOM     18  C   LIG    1       50.306  60.486  38.494  0.00  0.00    +0.094 C 
ATOM     19  C   LIG    1       51.475  61.177  37.796  0.00  0.00    +0.108 C 
ENDROOT
BRANCH   2   1
ATOM      1  C   LIG    1       51.930  63.267  36.550  0.00  0.00    +0.051 A 
ATOM     20  C   LIG    1       51.364  63.887  35.412  0.00  0.00    +0.031 A 
ATOM     21  C   LIG    1       50.010  63.769  35.109  0.00  0.00    +0.003 A 
ATOM     22  C   LIG    1       49.479  64.385  33.980  0.00  0.00    +0.000 A 
ATOM     23  C   LIG    1       50.291  65.131  33.124  0.00  0.00    +0.002 A 
ATOM     24  C   LIG    1       51.645  65.262  33.412  0.00  0.00    +0.019 A 
ATOM     25  C   LIG    1       52.171  64.646  34.543  0.00  0.00    +0.082 A 
ATOM     26  N   LIG    1       53.487  64.782  34.780  0.00  0.00    -0.241 NA
ATOM     27  C   LIG    1       54.070  64.202  35.850  0.00  0.00    +0.154 A 
ATOM     32  C   LIG    1       53.308  63.451  36.759  0.00  0.00    +0.038 A 
BRANCH  27  28
ATOM     28  C   LIG    1       55.544  64.475  35.983  0.00  0.00    +0.435 C 
ATOM     29  F   LIG    1       56.210  63.434  35.526  0.00  0.00    -0.164 F 
ATOM     30  F   LIG    1       55.937  64.783  37.205  0.00  0.00    -0.164 F 
ATOM     31  F   LIG    1       55.808  65.492  35.192  0.00  0.00    -0.164 F 
ENDBRANCH  27  28
ENDBRANCH   2   1
BRANCH   5   6
ATOM      6  C   LIG    1       48.774  60.571  40.331  0.00  0.00    +0.077 C 
ATOM      7  C   LIG    1       48.357  59.280  39.610  0.00  0.00    +0.044 C 
ATOM      8  C   LIG    1       47.702  58.424  40.695  0.00  0.00    +0.150 C 
ATOM     16  N   LIG    1       48.324  58.881  41.934  0.00  0.00    -0.209 NA
ATOM     17  C   LIG    1       49.133  60.076  41.742  0.00  0.00    +0.105 C 
BRANCH   8   9
ATOM      9  C   LIG    1       47.844  56.933  40.455  0.00  0.00    +0.242 C 
ATOM     10  O   LIG    1       48.754  56.314  41.006  0.00  0.00    -0.273 OA
ATOM     11  N   LIG    1       46.921  56.355  39.674  0.00  0.00    -0.268 N 
ATOM     12  C   LIG    1       45.868  57.160  39.040  0.00  0.00    +0.106 C 
ATOM     13  C   LIG    1       44.914  56.295  38.209  0.00  0.00    +0.081 C 
ATOM     14  S   LIG    1       45.781  54.818  37.963  0.00  0.00    -0.117 S 
ATOM     15  C   LIG    1       46.862  54.920  39.364  0.00  0.00    +0.152 C 
ENDBRANCH   8   9
ENDBRANCH   5   6
TORSDOF 4
ENDMDL
MODEL 2
REMARK VINA RESULT:    -7.711      2.178      2.571
REMARK INTER + INTRA:         -10.201
REMARK INTER:                  -9.925
REMARK INTRA:                  -0.276
REMARK UNBOUND:                -0.687
REMARK  Name = ligand_1
REMARK                            x       y       z     vdW  Elec       q    Type
REMARK                         _______ _______ _______ _____ _____    ______ ____
ROOT
ATOM      2  N   LIG    1       50.976  62.391  37.193  0.00  0.00    -0.305 N 
ATOM      3  C   LIG    1       50.059  61.439  36.573  0.00  0.00    +0.108 C 
ATOM      4  C   LIG    1       49.605  60.424  37.627  0.00  0.00    +0.094 C 
ATOM      5  N   LIG    1       49.079  61.125  38.809  0.00  0.00    -0.270 NA
ATOM     18  C   LIG    1       49.989  62.087  39.416  0.00  0.00    +0.094 C 
ATOM     19  C   LIG    1       50.435  63.099  38.363  0.00  0.00    +0.108 C 
ENDROOT
BRANCH   2   1
ATOM      1  C   LIG    1       51.795  63.162  36.296  0.00  0.00    +0.051 A 
ATOM     20  C   LIG    1       51.254  63.894  35.213  0.00  0.00    +0.031 A 
ATOM     21  C   LIG    1       49.906  63.814  34.874  0.00  0.00    +0.003 A 
ATOM     22  C   LIG    1       49.400  64.541  33.800  0.00  0.00    +0.000 A 
ATOM     23  C   LIG    1       50.233  65.361  33.036  0.00  0.00    +0.002 A 
ATOM     24  C   LIG    1       51.582  65.454  33.362  0.00  0.00    +0.019 A 
ATOM     25  C   LIG    1       52.082  64.728  34.438  0.00  0.00    +0.082 A 
ATOM     26  N   LIG    1       53.394  64.832  34.713  0.00  0.00    -0.241 NA
ATOM     27  C   LIG    1       53.952  64.146  35.732  0.00  0.00    +0.154 A 
ATOM     32  C   LIG    1       53.169  63.315  36.549  0.00  0.00    +0.038 A 
BRANCH  27  28
ATOM     28  C   LIG    1       55.424  64.395  35.920  0.00  0.00    +0.435 C 
ATOM     29  F   LIG    1       56.079  63.282  35.656  0.00  0.00    -0.164 F 
ATOM     30  F   LIG    1       55.756  64.863  37.109  0.00  0.00    -0.164 F 
ATOM     31  F   LIG    1       55.771  65.283  35.013  0.00  0.00    -0.164 F 
ENDBRANCH  27  28
ENDBRANCH   2   1
BRANCH   5   6
ATOM      6  C   LIG    1       48.668  60.139  39.847  0.00  0.00    +0.077 C 
ATOM      7  C   LIG    1       49.453  58.821  39.759  0.00  0.00    +0.044 C 
ATOM      8  C   LIG    1       49.415  58.252  41.177  0.00  0.00    +0.150 C 
ATOM     16  N   LIG    1       49.264  59.426  42.030  0.00  0.00    -0.209 NA
ATOM     17  C   LIG    1       48.988  60.635  41.266  0.00  0.00    +0.105 C 
BRANCH   8   9
ATOM      9  C   LIG    1       50.625  57.402  41.518  0.00  0.00    +0.242 C 
ATOM     10  O   LIG    1       51.754  57.870  41.372  0.00  0.00    -0.273 OA
ATOM     11  N   LIG    1       50.387  56.180  42.012  0.00  0.00    -0.268 N 
ATOM     12  C   LIG    1       49.011  55.684  42.150  0.00  0.00    +0.106 C 
ATOM     13  C   LIG    1       48.971  54.275  42.751  0.00  0.00    +0.081 C 
ATOM     14  S   LIG    1       50.580  53.675  42.541  0.00  0.00    -0.117 S 
ATOM     15  C   LIG    1       51.423  55.232  42.445  0.00  0.00    +0.152 C 
ENDBRANCH   8   9
ENDBRANCH   5   6
TORSDOF 4
ENDMDL
MODEL 3
REMARK VINA RESULT:    -7.563      6.509     10.018
REMARK INTER + INTRA:         -10.018
REMARK INTER:                  -9.430
REMARK INTRA:                  -0.588
REMARK UNBOUND:                -0.687
REMARK  Name = ligand_1
REMARK                            x       y       z     vdW  Elec       q    Type
REMARK                         _______ _______ _______ _____ _____    ______ ____
ROOT
ATOM      2  N   LIG    1       53.548  57.928  38.724  0.00  0.00    -0.305 N 
ATOM      3  C   LIG    1       54.473  59.030  38.478  0.00  0.00    +0.108 C 
ATOM      4  C   LIG    1       54.059  59.752  37.192  0.00  0.00    +0.094 C 
ATOM      5  N   LIG    1       52.638  60.129  37.260  0.00  0.00    -0.270 NA
ATOM     18  C   LIG    1       51.718  59.031  37.523  0.00  0.00    +0.094 C 
ATOM     19  C   LIG    1       52.132  58.317  38.807  0.00  0.00    +0.108 C 
ENDROOT
BRANCH   2   1
ATOM      1  C   LIG    1       53.994  56.917  39.646  0.00  0.00    +0.051 A 
ATOM     20  C   LIG    1       54.823  55.842  39.251  0.00  0.00    +0.031 A 
ATOM     21  C   LIG    1       55.160  55.626  37.917  0.00  0.00    +0.003 A 
ATOM     22  C   LIG    1       55.974  54.557  37.555  0.00  0.00    +0.000 A 
ATOM     23  C   LIG    1       56.467  53.675  38.518  0.00  0.00    +0.002 A 
ATOM     24  C   LIG    1       56.142  53.877  39.856  0.00  0.00    +0.019 A 
ATOM     25  C   LIG    1       55.331  54.949  40.213  0.00  0.00    +0.082 A 
ATOM     26  N   LIG    1       55.026  55.102  41.513  0.00  0.00    -0.241 NA
ATOM     27  C   LIG    1       54.233  56.110  41.933  0.00  0.00    +0.154 A 
ATOM     32  C   LIG    1       53.716  57.041  41.018  0.00  0.00    +0.038 A 
BRANCH  27  28
ATOM     28  C   LIG    1       54.013  56.154  43.421  0.00  0.00    +0.435 C 
ATOM     29  F   LIG    1       54.915  56.951  43.958  0.00  0.00    -0.164 F 
ATOM     30  F   LIG    1       54.018  54.975  44.013  0.00  0.00    -0.164 F 
ATOM     31  F   LIG    1       52.834  56.708  43.607  0.00  0.00    -0.164 F 
ENDBRANCH  27  28
ENDBRANCH   2   1
BRANCH   5   6
ATOM      6  C   LIG    1       52.227  60.802  35.996  0.00  0.00    +0.077 C 
ATOM      7  C   LIG    1       51.541  62.155  36.239  0.00  0.00    +0.044 C 
ATOM      8  C   LIG    1       51.795  62.954  34.961  0.00  0.00    +0.150 C 
ATOM     16  N   LIG    1       53.029  62.389  34.425  0.00  0.00    -0.209 NA
ATOM     17  C   LIG    1       53.439  61.182  35.131  0.00  0.00    +0.105 C 
BRANCH   8   9
ATOM      9  C   LIG    1       51.859  64.452  35.189  0.00  0.00    +0.242 C 
ATOM     10  O   LIG    1       52.139  64.884  36.306  0.00  0.00    -0.273 OA
ATOM     11  N   LIG    1       51.646  65.236  34.123  0.00  0.00    -0.268 N 
ATOM     12  C   LIG    1       51.306  64.650  32.819  0.00  0.00    +0.106 C 
ATOM     13  C   LIG    1       51.123  65.725  31.742  0.00  0.00    +0.081 C 
ATOM     14  S   LIG    1       50.899  67.190  32.635  0.00  0.00    -0.117 S 
ATOM     15  C   LIG    1       51.712  66.704  34.133  0.00  0.00    +0.152 C 
ENDBRANCH   8   9
ENDBRANCH   5   6
TORSDOF 4
ENDMDL
MODEL 4
REMARK VINA RESULT:    -7.389      6.482      9.876
REMARK INTER + INTRA:          -9.803
REMARK INTER:                  -9.668
REMARK INTRA:                  -0.135
REMARK UNBOUND:                -0.687
REMARK  Name = ligand_1
REMARK                            x       y       z     vdW  Elec       q    Type
REMARK                         _______ _______ _______ _____ _____    ______ ____
ROOT
ATOM      2  N   LIG    1       54.624  58.546  38.182  0.00  0.00    -0.305 N 
ATOM      3  C   LIG    1       53.385  58.577  37.412  0.00  0.00    +0.108 C 
ATOM      4  C   LIG    1       53.092  60.022  36.996  0.00  0.00    +0.094 C 
ATOM      5  N   LIG    1       54.264  60.601  36.321  0.00  0.00    -0.270 NA
ATOM     18  C   LIG    1       55.504  60.553  37.085  0.00  0.00    +0.094 C 
ATOM     19  C   LIG    1       55.794  59.111  37.493  0.00  0.00    +0.108 C 
ENDROOT
BRANCH   2   1
ATOM      1  C   LIG    1       54.851  57.366  38.975  0.00  0.00    +0.051 A 
ATOM     20  C   LIG    1       55.579  56.254  38.492  0.00  0.00    +0.031 A 
ATOM     21  C   LIG    1       56.019  56.182  37.173  0.00  0.00    +0.003 A 
ATOM     22  C   LIG    1       56.731  55.074  36.723  0.00  0.00    +0.000 A 
ATOM     23  C   LIG    1       57.014  54.009  37.580  0.00  0.00    +0.002 A 
ATOM     24  C   LIG    1       56.584  54.065  38.901  0.00  0.00    +0.019 A 
ATOM     25  C   LIG    1       55.876  55.177  39.348  0.00  0.00    +0.082 A 
ATOM     26  N   LIG    1       55.464  55.189  40.627  0.00  0.00    -0.241 NA
ATOM     27  C   LIG    1       54.760  56.226  41.127  0.00  0.00    +0.154 A 
ATOM     32  C   LIG    1       54.454  57.335  40.323  0.00  0.00    +0.038 A 
BRANCH  27  28
ATOM     28  C   LIG    1       54.399  56.093  42.581  0.00  0.00    +0.435 C 
ATOM     29  F   LIG    1       53.099  56.265  42.713  0.00  0.00    -0.164 F 
ATOM     30  F   LIG    1       55.063  56.900  43.388  0.00  0.00    -0.164 F 
ATOM     31  F   LIG    1       54.670  54.851  42.921  0.00  0.00    -0.164 F 
ENDBRANCH  27  28
ENDBRANCH   2   1
BRANCH   5   6
ATOM      6  C   LIG    1       53.991  62.016  35.946  0.00  0.00    +0.077 C 
ATOM      7  C   LIG    1       53.312  62.147  34.574  0.00  0.00    +0.044 C 
ATOM      8  C   LIG    1       52.541  63.465  34.648  0.00  0.00    +0.150 C 
ATOM     16  N   LIG    1       52.266  63.640  36.070  0.00  0.00    -0.209 NA
ATOM     17  C   LIG    1       52.976  62.673  36.896  0.00  0.00    +0.105 C 
BRANCH   8   9
ATOM      9  C   LIG    1       51.297  63.485  33.779  0.00  0.00    +0.242 C 
ATOM     10  O   LIG    1       50.679  62.440  33.582  0.00  0.00    -0.273 OA
ATOM     11  N   LIG    1       50.910  64.677  33.303  0.00  0.00    -0.268 N 
ATOM     12  C   LIG    1       51.705  65.883  33.572  0.00  0.00    +0.106 C 
ATOM     13  C   LIG    1       51.071  67.132  32.951  0.00  0.00    +0.081 C 
ATOM     14  S   LIG    1       49.964  66.510  31.775  0.00  0.00    -0.117 S 
ATOM     15  C   LIG    1       49.711  64.906  32.487  0.00  0.00    +0.152 C 
ENDBRANCH   8   9
ENDBRANCH   5   6
TORSDOF 4
ENDMDL
MODEL 5
REMARK VINA RESULT:    -7.126      4.986      8.685
REMARK INTER + INTRA:          -9.479
REMARK INTER:                  -8.548
REMARK INTRA:                  -0.931
REMARK UNBOUND:                -0.687
REMARK  Name = ligand_1
REMARK                            x       y       z     vdW  Elec       q    Type
REMARK                         _______ _______ _______ _____ _____    ______ ____
ROOT
ATOM      2  N   LIG    1       51.927  59.407  37.795  0.00  0.00    -0.305 N 
ATOM      3  C   LIG    1       51.774  58.402  36.748  0.00  0.00    +0.108 C 
ATOM      4  C   LIG    1       51.453  59.105  35.424  0.00  0.00    +0.094 C 
ATOM      5  N   LIG    1       52.453  60.148  35.152  0.00  0.00    -0.270 NA
ATOM     18  C   LIG    1       52.616  61.141  36.206  0.00  0.00    +0.094 C 
ATOM     19  C   LIG    1       52.941  60.436  37.521  0.00  0.00    +0.108 C 
ENDROOT
BRANCH   2   1
ATOM      1  C   LIG    1       51.841  58.931  39.150  0.00  0.00    +0.051 A 
ATOM     20  C   LIG    1       50.796  59.309  40.024  0.00  0.00    +0.031 A 
ATOM     21  C   LIG    1       49.849  60.265  39.665  0.00  0.00    +0.003 A 
ATOM     22  C   LIG    1       48.832  60.622  40.546  0.00  0.00    +0.000 A 
ATOM     23  C   LIG    1       48.742  60.036  41.810  0.00  0.00    +0.002 A 
ATOM     24  C   LIG    1       49.678  59.077  42.184  0.00  0.00    +0.019 A 
ATOM     25  C   LIG    1       50.691  58.721  41.299  0.00  0.00    +0.082 A 
ATOM     26  N   LIG    1       51.586  57.803  41.702  0.00  0.00    -0.241 NA
ATOM     27  C   LIG    1       52.603  57.418  40.903  0.00  0.00    +0.154 A 
ATOM     32  C   LIG    1       52.743  57.958  39.615  0.00  0.00    +0.038 A 
BRANCH  27  28
ATOM     28  C   LIG    1       53.498  56.364  41.495  0.00  0.00    +0.435 C 
ATOM     29  F   LIG    1       54.717  56.530  41.023  0.00  0.00    -0.164 F 
ATOM     30  F   LIG    1       53.087  55.124  41.307  0.00  0.00    -0.164 F 
ATOM     31  F   LIG    1       53.541  56.595  42.790  0.00  0.00    -0.164 F 
ENDBRANCH  27  28
ENDBRANCH   2   1
BRANCH   5   6
ATOM      6  C   LIG    1       52.123  60.854  33.882  0.00  0.00    +0.077 C 
ATOM      7  C   LIG    1       50.718  61.476  33.896  0.00  0.00    +0.044 C 
ATOM      8  C   LIG    1       50.800  62.639  32.907  0.00  0.00    +0.150 C 
ATOM     16  N   LIG    1       52.208  63.020  32.918  0.00  0.00    -0.209 NA
ATOM     17  C   LIG    1       53.035  62.069  33.649  0.00  0.00    +0.105 C 
BRANCH   8   9
ATOM      9  C   LIG    1       49.857  63.780  33.239  0.00  0.00    +0.242 C 
ATOM     10  O   LIG    1       50.189  64.615  34.079  0.00  0.00    -0.273 OA
ATOM     11  N   LIG    1       48.710  63.838  32.548  0.00  0.00    -0.268 N 
ATOM     12  C   LIG    1       48.375  62.799  31.565  0.00  0.00    +0.106 C 
ATOM     13  C   LIG    1       47.031  63.072  30.883  0.00  0.00    +0.081 C 
ATOM     14  S   LIG    1       46.249  64.214  31.922  0.00  0.00    -0.117 S 
ATOM     15  C   LIG    1       47.695  64.891  32.692  0.00  0.00    +0.152 C 
ENDBRANCH   8   9
ENDBRANCH   5   6
TORSDOF 4
ENDMDL
MODEL 6
REMARK VINA RESULT:    -7.021      5.409      9.464
REMARK INTER + INTRA:          -9.350
REMARK INTER:                  -8.702
REMARK INTRA:                  -0.648
REMARK UNBOUND:                -0.687
REMARK  Name = ligand_1
REMARK                            x       y       z     vdW  Elec       q    Type
REMARK                         _______ _______ _______ _____ _____    ______ ____
ROOT
ATOM      2  N   LIG    1       52.447  59.269  38.720  0.00  0.00    -0.305 N 
ATOM      3  C   LIG    1       51.545  59.172  37.577  0.00  0.00    +0.108 C 
ATOM      4  C   LIG    1       51.947  60.221  36.534  0.00  0.00    +0.094 C 
ATOM      5  N   LIG    1       53.378  60.095  36.217  0.00  0.00    -0.270 NA
ATOM     18  C   LIG    1       54.275  60.175  37.362  0.00  0.00    +0.094 C 
ATOM     19  C   LIG    1       53.874  59.126  38.396  0.00  0.00    +0.108 C 
ENDROOT
BRANCH   2   1
ATOM      1  C   LIG    1       51.997  58.650  39.939  0.00  0.00    +0.051 A 
ATOM     20  C   LIG    1       50.841  59.083  40.629  0.00  0.00    +0.031 A 
ATOM     21  C   LIG    1       50.134  60.217  40.238  0.00  0.00    +0.003 A 
ATOM     22  C   LIG    1       49.002  60.624  40.939  0.00  0.00    +0.000 A 
ATOM     23  C   LIG    1       48.554  59.909  42.050  0.00  0.00    +0.002 A 
ATOM     24  C   LIG    1       49.247  58.772  42.454  0.00  0.00    +0.019 A 
ATOM     25  C   LIG    1       50.376  58.367  41.749  0.00  0.00    +0.082 A 
ATOM     26  N   LIG    1       51.027  57.273  42.178  0.00  0.00    -0.241 NA
ATOM     27  C   LIG    1       52.138  56.829  41.553  0.00  0.00    +0.154 A 
ATOM     32  C   LIG    1       52.634  57.493  40.420  0.00  0.00    +0.038 A 
BRANCH  27  28
ATOM     28  C   LIG    1       52.729  55.578  42.143  0.00  0.00    +0.435 C 
ATOM     29  F   LIG    1       51.748  54.785  42.526  0.00  0.00    -0.164 F 
ATOM     30  F   LIG    1       53.578  55.784  43.133  0.00  0.00    -0.164 F 
ATOM     31  F   LIG    1       53.370  54.971  41.166  0.00  0.00    -0.164 F 
ENDBRANCH  27  28
ENDBRANCH   2   1
BRANCH   5   6
ATOM      6  C   LIG    1       53.776  61.136  35.228  0.00  0.00    +0.077 C 
ATOM      7  C   LIG    1       52.660  62.157  34.959  0.00  0.00    +0.044 C 
ATOM      8  C   LIG    1       53.393  63.422  34.513  0.00  0.00    +0.150 C 
ATOM     16  N   LIG    1       54.704  63.317  35.143  0.00  0.00    -0.209 NA
ATOM     17  C   LIG    1       54.925  62.012  35.752  0.00  0.00    +0.105 C 
BRANCH   8   9
ATOM      9  C   LIG    1       52.651  64.701  34.857  0.00  0.00    +0.242 C 
ATOM     10  O   LIG    1       52.665  65.116  36.015  0.00  0.00    -0.273 OA
ATOM     11  N   LIG    1       52.049  65.342  33.847  0.00  0.00    -0.268 N 
ATOM     12  C   LIG    1       52.066  64.781  32.489  0.00  0.00    +0.106 C 
ATOM     13  C   LIG    1       51.335  65.686  31.491  0.00  0.00    +0.081 C 
ATOM     14  S   LIG    1       50.371  66.726  32.482  0.00  0.00    -0.117 S 
ATOM     15  C   LIG    1       51.326  66.615  33.972  0.00  0.00    +0.152 C 
ENDBRANCH   8   9
ENDBRANCH   5   6
TORSDOF 4
ENDMDL
MODEL 7
REMARK VINA RESULT:    -6.378      5.260      9.071
REMARK INTER + INTRA:          -8.556
REMARK INTER:                  -8.301
REMARK INTRA:                  -0.254
REMARK UNBOUND:                -0.687
REMARK  Name = ligand_1
REMARK                            x       y       z     vdW  Elec       q    Type
REMARK                         _______ _______ _______ _____ _____    ______ ____
ROOT
ATOM      2  N   LIG    1       51.493  59.438  37.681  0.00  0.00    -0.305 N 
ATOM      3  C   LIG    1       51.516  58.427  36.628  0.00  0.00    +0.108 C 
ATOM      4  C   LIG    1       51.275  59.109  35.277  0.00  0.00    +0.094 C 
ATOM      5  N   LIG    1       52.218  60.224  35.099  0.00  0.00    -0.270 NA
ATOM     18  C   LIG    1       52.205  61.222  36.159  0.00  0.00    +0.094 C 
ATOM     19  C   LIG    1       52.450  60.539  37.503  0.00  0.00    +0.108 C 
ENDROOT
BRANCH   2   1
ATOM      1  C   LIG    1       51.311  58.953  39.023  0.00  0.00    +0.051 A 
ATOM     20  C   LIG    1       52.247  58.104  39.658  0.00  0.00    +0.031 A 
ATOM     21  C   LIG    1       53.346  57.585  38.978  0.00  0.00    +0.003 A 
ATOM     22  C   LIG    1       54.250  56.748  39.625  0.00  0.00    +0.000 A 
ATOM     23  C   LIG    1       54.075  56.405  40.967  0.00  0.00    +0.002 A 
ATOM     24  C   LIG    1       52.984  56.917  41.662  0.00  0.00    +0.019 A 
ATOM     25  C   LIG    1       52.084  57.755  41.012  0.00  0.00    +0.082 A 
ATOM     26  N   LIG    1       51.034  58.217  41.713  0.00  0.00    -0.241 NA
ATOM     27  C   LIG    1       50.113  59.024  41.145  0.00  0.00    +0.154 A 
ATOM     32  C   LIG    1       50.238  59.418  39.804  0.00  0.00    +0.038 A 
BRANCH  27  28
ATOM     28  C   LIG    1       49.018  59.472  42.074  0.00  0.00    +0.435 C 
ATOM     29  F   LIG    1       48.232  60.310  41.428  0.00  0.00    -0.164 F 
ATOM     30  F   LIG    1       49.439  60.003  43.206  0.00  0.00    -0.164 F 
ATOM     31  F   LIG    1       48.307  58.401  42.356  0.00  0.00    -0.164 F 
ENDBRANCH  27  28
ENDBRANCH   2   1
BRANCH   5   6
ATOM      6  C   LIG    1       51.962  60.907  33.800  0.00  0.00    +0.077 C 
ATOM      7  C   LIG    1       50.578  61.570  33.740  0.00  0.00    +0.044 C 
ATOM      8  C   LIG    1       50.736  62.705  32.728  0.00  0.00    +0.150 C 
ATOM     16  N   LIG    1       52.154  63.045  32.790  0.00  0.00    -0.209 NA
ATOM     17  C   LIG    1       52.920  62.088  33.577  0.00  0.00    +0.105 C 
BRANCH   8   9
ATOM      9  C   LIG    1       49.815  63.882  32.993  0.00  0.00    +0.242 C 
ATOM     10  O   LIG    1       50.183  64.782  33.747  0.00  0.00    -0.273 OA
ATOM     11  N   LIG    1       48.645  63.894  32.339  0.00  0.00    -0.268 N 
ATOM     12  C   LIG    1       48.268  62.779  31.461  0.00  0.00    +0.106 C 
ATOM     13  C   LIG    1       46.903  63.009  30.803  0.00  0.00    +0.081 C 
ATOM     14  S   LIG    1       46.168  64.244  31.767  0.00  0.00    -0.117 S 
ATOM     15  C   LIG    1       47.646  64.967  32.427  0.00  0.00    +0.152 C 
ENDBRANCH   8   9
ENDBRANCH   5   6
TORSDOF 4
ENDMDL
MODEL 8
REMARK VINA RESULT:    -6.268      5.373      9.651
REMARK INTER + INTRA:          -8.420
REMARK INTER:                  -7.612
REMARK INTRA:                  -0.809
REMARK UNBOUND:                -0.687
REMARK  Name = ligand_1
REMARK                            x       y       z     vdW  Elec       q    Type
REMARK                         _______ _______ _______ _____ _____    ______ ____
ROOT
ATOM      2  N   LIG    1       51.322  58.037  38.894  0.00  0.00    -0.305 N 
ATOM      3  C   LIG    1       51.547  57.201  37.720  0.00  0.00    +0.108 C 
ATOM      4  C   LIG    1       50.961  57.900  36.489  0.00  0.00    +0.094 C 
ATOM      5  N   LIG    1       51.483  59.272  36.392  0.00  0.00    -0.270 NA
ATOM     18  C   LIG    1       51.272  60.100  37.571  0.00  0.00    +0.094 C 
ATOM     19  C   LIG    1       51.861  59.402  38.795  0.00  0.00    +0.108 C 
ENDROOT
BRANCH   2   1
ATOM      1  C   LIG    1       51.447  57.387  40.172  0.00  0.00    +0.051 A 
ATOM     20  C   LIG    1       50.363  56.730  40.799  0.00  0.00    +0.031 A 
ATOM     21  C   LIG    1       49.073  56.777  40.276  0.00  0.00    +0.003 A 
ATOM     22  C   LIG    1       48.023  56.126  40.916  0.00  0.00    +0.000 A 
ATOM     23  C   LIG    1       48.237  55.415  42.098  0.00  0.00    +0.002 A 
ATOM     24  C   LIG    1       49.519  55.355  42.634  0.00  0.00    +0.019 A 
ATOM     25  C   LIG    1       50.566  56.005  41.989  0.00  0.00    +0.082 A 
ATOM     26  N   LIG    1       51.788  55.938  42.545  0.00  0.00    -0.241 NA
ATOM     27  C   LIG    1       52.849  56.555  41.984  0.00  0.00    +0.154 A 
ATOM     32  C   LIG    1       52.706  57.274  40.787  0.00  0.00    +0.038 A 
BRANCH  27  28
ATOM     28  C   LIG    1       54.147  56.358  42.718  0.00  0.00    +0.435 C 
ATOM     29  F   LIG    1       55.083  57.068  42.120  0.00  0.00    -0.164 F 
ATOM     30  F   LIG    1       54.522  55.099  42.844  0.00  0.00    -0.164 F 
ATOM     31  F   LIG    1       53.976  56.863  43.921  0.00  0.00    -0.164 F 
ENDBRANCH  27  28
ENDBRANCH   2   1
BRANCH   5   6
ATOM      6  C   LIG    1       50.887  59.962  35.214  0.00  0.00    +0.077 C 
ATOM      7  C   LIG    1       51.121  61.481  35.234  0.00  0.00    +0.044 C 
ATOM      8  C   LIG    1       51.073  61.900  33.765  0.00  0.00    +0.150 C 
ATOM     16  N   LIG    1       51.476  60.701  33.037  0.00  0.00    -0.209 NA
ATOM     17  C   LIG    1       51.557  59.530  33.899  0.00  0.00    +0.105 C 
BRANCH   8   9
ATOM      9  C   LIG    1       51.926  63.116  33.457  0.00  0.00    +0.242 C 
ATOM     10  O   LIG    1       53.141  63.069  33.649  0.00  0.00    -0.273 OA
ATOM     11  N   LIG    1       51.298  64.181  32.939  0.00  0.00    -0.268 N 
ATOM     12  C   LIG    1       49.842  64.169  32.746  0.00  0.00    +0.106 C 
ATOM     13  C   LIG    1       49.340  65.478  32.126  0.00  0.00    +0.081 C 
ATOM     14  S   LIG    1       50.633  66.598  32.386  0.00  0.00    -0.117 S 
ATOM     15  C   LIG    1       51.958  65.429  32.532  0.00  0.00    +0.152 C 
ENDBRANCH   8   9
ENDBRANCH   5   6
TORSDOF 4
ENDMDL
MODEL 9
REMARK VINA RESULT:    -6.015      5.781     10.024
REMARK INTER + INTRA:          -8.108
REMARK INTER:                  -7.823
REMARK INTRA:                  -0.285
REMARK UNBOUND:                -0.687
REMARK  Name = ligand_1
REMARK                            x       y       z     vdW  Elec       q    Type
REMARK                         _______ _______ _______ _____ _____    ______ ____
ROOT
ATOM      2  N   LIG    1       52.057  58.507  38.676  0.00  0.00    -0.305 N 
ATOM      3  C   LIG    1       50.987  59.191  37.955  0.00  0.00    +0.108 C 
ATOM      4  C   LIG    1       51.604  60.242  37.026  0.00  0.00    +0.094 C 
ATOM      5  N   LIG    1       52.636  59.624  36.179  0.00  0.00    -0.270 NA
ATOM     18  C   LIG    1       53.694  58.928  36.900  0.00  0.00    +0.094 C 
ATOM     19  C   LIG    1       53.075  57.878  37.821  0.00  0.00    +0.108 C 
ENDROOT
BRANCH   2   1
ATOM      1  C   LIG    1       51.665  57.780  39.854  0.00  0.00    +0.051 A 
ATOM     20  C   LIG    1       52.603  57.295  40.794  0.00  0.00    +0.031 A 
ATOM     21  C   LIG    1       53.976  57.384  40.575  0.00  0.00    +0.003 A 
ATOM     22  C   LIG    1       54.878  56.894  41.515  0.00  0.00    +0.000 A 
ATOM     23  C   LIG    1       54.428  56.298  42.695  0.00  0.00    +0.002 A 
ATOM     24  C   LIG    1       53.061  56.202  42.931  0.00  0.00    +0.019 A 
ATOM     25  C   LIG    1       52.163  56.696  41.990  0.00  0.00    +0.082 A 
ATOM     26  N   LIG    1       50.850  56.571  42.246  0.00  0.00    -0.241 NA
ATOM     27  C   LIG    1       49.920  57.014  41.374  0.00  0.00    +0.154 A 
ATOM     32  C   LIG    1       50.304  57.637  40.175  0.00  0.00    +0.038 A 
BRANCH  27  28
ATOM     28  C   LIG    1       48.498  56.822  41.824  0.00  0.00    +0.435 C 
ATOM     29  F   LIG    1       48.406  57.163  43.094  0.00  0.00    -0.164 F 
ATOM     30  F   LIG    1       48.018  55.608  41.629  0.00  0.00    -0.164 F 
ATOM     31  F   LIG    1       47.770  57.673  41.133  0.00  0.00    -0.164 F 
ENDBRANCH  27  28
ENDBRANCH   2   1
BRANCH   5   6
ATOM      6  C   LIG    1       53.259  60.652  35.299  0.00  0.00    +0.077 C 
ATOM      7  C   LIG    1       52.354  61.875  35.082  0.00  0.00    +0.044 C 
ATOM      8  C   LIG    1       53.319  63.021  34.775  0.00  0.00    +0.150 C 
ATOM     16  N   LIG    1       54.559  62.632  35.437  0.00  0.00    -0.209 NA
ATOM     17  C   LIG    1       54.517  61.264  35.937  0.00  0.00    +0.105 C 
BRANCH   8   9
ATOM      9  C   LIG    1       52.798  64.379  35.205  0.00  0.00    +0.242 C 
ATOM     10  O   LIG    1       52.892  64.719  36.383  0.00  0.00    -0.273 OA
ATOM     11  N   LIG    1       52.295  65.167  34.244  0.00  0.00    -0.268 N 
ATOM     12  C   LIG    1       52.206  64.690  32.857  0.00  0.00    +0.106 C 
ATOM     13  C   LIG    1       51.618  65.756  31.925  0.00  0.00    +0.081 C 
ATOM     14  S   LIG    1       50.846  66.878  32.993  0.00  0.00    -0.117 S 
ATOM     15  C   LIG    1       51.788  66.529  34.454  0.00  0.00    +0.152 C 
ENDBRANCH   8   9
ENDBRANCH   5   6
TORSDOF 4
ENDMDL
