REMARK  Name = C:\Users\jundo\Desktop\Git\Graduation_project\vina\vildagliptin_from_3w2t.pdb
REMARK                            x       y       z     vdW  Elec       q    Type
REMARK                         _______ _______ _______ _____ _____    ______ ____
ROOT
ATOM      1  C   LIG    1       99.840  51.439  38.540  0.00  0.00    +0.004 C 
ATOM      2  C   LIG    1       98.719  51.570  37.512  0.00  0.00    +0.016 C 
ATOM      3  C   LIG    1       99.268  52.077  36.156  0.00  0.00    +0.062 C 
ATOM     15  C   LIG    1      100.346  51.126  35.632  0.00  0.00    +0.016 C 
ATOM     16  C   LIG    1      101.475  51.004  36.670  0.00  0.00    +0.004 C 
ATOM     17  C   LIG    1      102.116  52.403  36.877  0.00  0.00    +0.031 C 
ATOM     18  C   LIG    1      101.049  53.348  37.403  0.00  0.00    +0.128 C 
ATOM     19  O   LIG    1      101.608  54.654  37.610  0.00  0.00    -0.226 OA
ATOM     20  C   LIG    1       99.901  53.449  36.379  0.00  0.00    +0.046 C 
ATOM     21  C   LIG    1      100.505  52.807  38.744  0.00  0.00    +0.031 C 
ATOM     22  C   LIG    1      100.884  50.464  37.982  0.00  0.00    +0.000 C 
ENDROOT
BRANCH   3   4
ATOM      4  N   LIG    1       98.200  52.190  35.167  0.00  0.00    -0.211 NA
BRANCH   4   5
ATOM      5  C   LIG    1       97.277  51.094  34.907  0.00  0.00    +0.174 C 
BRANCH   5   6
ATOM      6  C   LIG    1       96.060  51.090  35.810  0.00  0.00    +0.244 C 
ATOM      7  O   LIG    1       95.707  52.126  36.345  0.00  0.00    -0.273 OA
ATOM      8  N   LIG    1       95.400  49.907  36.116  0.00  0.00    -0.275 N 
ATOM      9  C   LIG    1       95.579  48.758  35.201  0.00  0.00    +0.094 C 
ATOM     10  C   LIG    1       94.318  47.912  35.338  0.00  0.00    +0.024 C 
ATOM     11  C   LIG    1       93.236  48.901  35.755  0.00  0.00    +0.028 C 
ATOM     12  C   LIG    1       93.971  50.003  36.504  0.00  0.00    +0.119 C 
BRANCH  12  13
ATOM     13  C   LIG    1       93.889  49.656  37.965  0.00  0.00    +0.115 C 
ATOM     14  N   LIG    1       94.878  49.098  38.517  0.00  0.00    -0.150 NA
ENDBRANCH  12  13
ENDBRANCH   5   6
ENDBRANCH   4   5
ENDBRANCH   3   4
TORSDOF 4
