MODEL 7
REMARK VINA RESULT:    -7.471      5.239      6.933
REMARK INTER + INTRA:         -10.000
REMARK INTER:                  -9.464
REMARK INTRA:                  -0.535
REMARK UNBOUND:                -0.781
REMARK  Name = ligand_1
REMARK                            x       y       z     vdW  Elec       q    Type
REMARK                         _______ _______ _______ _____ _____    ______ ____
ROOT
ATOM      2  N   LIG    1       53.552  57.963  38.720  0.00  0.00    -0.305 N 
ATOM      3  C   LIG    1       54.528  58.992  38.371  0.00  0.00    +0.108 C 
ATOM      4  C   LIG    1       54.067  59.704  37.095  0.00  0.00    +0.094 C 
ATOM      5  N   LIG    1       52.684  60.178  37.253  0.00  0.00    -0.270 NA
ATOM     18  C   LIG    1       51.715  59.153  37.618  0.00  0.00    +0.094 C 
ATOM     19  C   LIG    1       52.175  58.450  38.892  0.00  0.00    +0.108 C 
ENDROOT
BRANCH   2   1
ATOM      1  C   LIG    1       53.998  56.951  39.640  0.00  0.00    +0.051 A 
ATOM     20  C   LIG    1       54.811  55.865  39.240  0.00  0.00    +0.031 A 
ATOM     21  C   LIG    1       55.129  55.640  37.903  0.00  0.00    +0.003 A 
ATOM     22  C   LIG    1       55.927  54.561  37.535  0.00  0.00    +0.000 A 
ATOM     23  C   LIG    1       56.421  53.677  38.496  0.00  0.00    +0.002 A 
ATOM     24  C   LIG    1       56.115  53.887  39.836  0.00  0.00    +0.019 A 
ATOM     25  C   LIG    1       55.320  54.969  40.199  0.00  0.00    +0.082 A 
ATOM     26  N   LIG    1       55.033  55.131  41.502  0.00  0.00    -0.241 NA
ATOM     27  C   LIG    1       54.256  56.149  41.928  0.00  0.00    +0.154 A 
ATOM     32  C   LIG    1       53.739  57.083  41.016  0.00  0.00    +0.038 A 
BRANCH  27  28
ATOM     28  C   LIG    1       54.055  56.202  43.418  0.00  0.00    +0.435 C 
ATOM     29  F   LIG    1       54.930  57.042  43.933  0.00  0.00    -0.164 F 
ATOM     30  F   LIG    1       54.117  55.031  44.023  0.00  0.00    -0.164 F 
ATOM     31  F   LIG    1       52.857  56.709  43.614  0.00  0.00    -0.164 F 
ENDBRANCH  27  28
ENDBRANCH   2   1
BRANCH   5   6
ATOM      6  C   LIG    1       52.225  60.842  36.001  0.00  0.00    +0.077 C 
ATOM      7  C   LIG    1       51.572  62.209  36.257  0.00  0.00    +0.044 C 
ATOM      8  C   LIG    1       51.779  62.986  34.957  0.00  0.00    +0.150 C 
ATOM     16  N   LIG    1       52.978  62.395  34.373  0.00  0.00    -0.209 NA
ATOM     17  C   LIG    1       53.401  61.191  35.075  0.00  0.00    +0.105 C 
BRANCH   8   9
ATOM      9  C   LIG    1       51.877  64.487  35.161  0.00  0.00    +0.242 C 
ATOM     10  O   LIG    1       52.208  64.928  36.261  0.00  0.00    -0.273 OA
ATOM     11  N   LIG    1       51.636  65.260  34.093  0.00  0.00    -0.268 N 
ATOM     12  C   LIG    1       51.236  64.663  32.813  0.00  0.00    +0.106 C 
ATOM     13  C   LIG    1       51.030  65.726  31.728  0.00  0.00    +0.081 C 
ATOM     14  S   LIG    1       50.865  67.207  32.608  0.00  0.00    -0.117 S 
ATOM     15  C   LIG    1       51.728  66.726  34.081  0.00  0.00    +0.152 C 
ENDBRANCH   8   9
ENDBRANCH   5   6
TORSDOF 4
ENDMDL
