MODEL 1
REMARK VINA RESULT:    -8.064      0.000      0.000
REMARK INTER + INTRA:         -10.637
REMARK INTER:                  -9.950
REMARK INTRA:                  -0.687
REMARK UNBOUND:                -0.687
REMARK  Name = ligand_1
REMARK                            x       y       z     vdW  Elec       q    Type
REMARK                         _______ _______ _______ _____ _____    ______ ____
ROOT
ATOM      2  N   LIG    1       51.134  62.584  37.535  0.00  0.00    -0.305 N 
ATOM      3  C   LIG    1       50.768  63.357  38.717  0.00  0.00    +0.108 C 
ATOM      4  C   LIG    1       49.598  62.665  39.424  0.00  0.00    +0.094 C 
ATOM      5  N   LIG    1       49.924  61.252  39.674  0.00  0.00    -0.270 NA
ATOM     18  C   LIG    1       50.306  60.486  38.494  0.00  0.00    +0.094 C 
ATOM     19  C   LIG    1       51.475  61.177  37.796  0.00  0.00    +0.108 C 
ENDROOT
BRANCH   2   1
ATOM      1  C   LIG    1       51.930  63.267  36.550  0.00  0.00    +0.051 A 
ATOM     20  C   LIG    1       51.364  63.887  35.412  0.00  0.00    +0.031 A 
ATOM     21  C   LIG    1       50.010  63.769  35.109  0.00  0.00    +0.003 A 
ATOM     22  C   LIG    1       49.479  64.385  33.980  0.00  0.00    +0.000 A 
ATOM     23  C   LIG    1       50.291  65.131  33.124  0.00  0.00    +0.002 A 
ATOM     24  C   LIG    1       51.645  65.262  33.412  0.00  0.00    +0.019 A 
ATOM     25  C   LIG    1       52.171  64.646  34.543  0.00  0.00    +0.082 A 
ATOM     26  N   LIG    1       53.487  64.782  34.780  0.00  0.00    -0.241 NA
ATOM     27  C   LIG    1       54.070  64.202  35.850  0.00  0.00    +0.154 A 
ATOM     32  C   LIG    1       53.308  63.451  36.759  0.00  0.00    +0.038 A 
BRANCH  27  28
ATOM     28  C   LIG    1       55.544  64.475  35.983  0.00  0.00    +0.435 C 
ATOM     29  F   LIG    1       56.210  63.434  35.526  0.00  0.00    -0.164 F 
ATOM     30  F   LIG    1       55.937  64.783  37.205  0.00  0.00    -0.164 F 
ATOM     31  F   LIG    1       55.808  65.492  35.192  0.00  0.00    -0.164 F 
ENDBRANCH  27  28
ENDBRANCH   2   1
BRANCH   5   6
ATOM      6  C   LIG    1       48.774  60.571  40.331  0.00  0.00    +0.077 C 
ATOM      7  C   LIG    1       48.357  59.280  39.610  0.00  0.00    +0.044 C 
ATOM      8  C   LIG    1       47.702  58.424  40.695  0.00  0.00    +0.150 C 
ATOM     16  N   LIG    1       48.324  58.881  41.934  0.00  0.00    -0.209 NA
ATOM     17  C   LIG    1       49.133  60.076  41.742  0.00  0.00    +0.105 C 
BRANCH   8   9
ATOM      9  C   LIG    1       47.844  56.933  40.455  0.00  0.00    +0.242 C 
ATOM     10  O   LIG    1       48.754  56.314  41.006  0.00  0.00    -0.273 OA
ATOM     11  N   LIG    1       46.921  56.355  39.674  0.00  0.00    -0.268 N 
ATOM     12  C   LIG    1       45.868  57.160  39.040  0.00  0.00    +0.106 C 
ATOM     13  C   LIG    1       44.914  56.295  38.209  0.00  0.00    +0.081 C 
ATOM     14  S   LIG    1       45.781  54.818  37.963  0.00  0.00    -0.117 S 
ATOM     15  C   LIG    1       46.862  54.920  39.364  0.00  0.00    +0.152 C 
ENDBRANCH   8   9
ENDBRANCH   5   6
TORSDOF 4
ENDMDL
