MODEL 4
REMARK VINA RESULT:    -7.519      2.913      3.925
REMARK INTER + INTRA:         -10.106
REMARK INTER:                  -9.524
REMARK INTRA:                  -0.582
REMARK UNBOUND:                -0.829
REMARK  Name = ligand_1
REMARK                            x       y       z     vdW  Elec       q    Type
REMARK                         _______ _______ _______ _____ _____    ______ ____
ROOT
ATOM      2  N   LIG    1       50.590  63.011  36.590  0.00  0.00    -0.305 N 
ATOM      3  C   LIG    1       49.249  62.621  36.165  0.00  0.00    +0.108 C 
ATOM      4  C   LIG    1       48.783  61.431  37.012  0.00  0.00    +0.094 C 
ATOM      5  N   LIG    1       48.923  61.745  38.442  0.00  0.00    -0.270 NA
ATOM     18  C   LIG    1       50.259  62.151  38.861  0.00  0.00    +0.094 C 
ATOM     19  C   LIG    1       50.716  63.339  38.018  0.00  0.00    +0.108 C 
ENDROOT
BRANCH   2   1
ATOM      1  C   LIG    1       51.332  63.833  35.672  0.00  0.00    +0.051 A 
ATOM     20  C   LIG    1       52.745  63.825  35.616  0.00  0.00    +0.031 A 
ATOM     21  C   LIG    1       53.512  63.109  36.532  0.00  0.00    +0.003 A 
ATOM     22  C   LIG    1       54.901  63.121  36.458  0.00  0.00    +0.000 A 
ATOM     23  C   LIG    1       55.559  63.853  35.468  0.00  0.00    +0.002 A 
ATOM     24  C   LIG    1       54.809  64.573  34.543  0.00  0.00    +0.019 A 
ATOM     25  C   LIG    1       53.420  64.555  34.619  0.00  0.00    +0.082 A 
ATOM     26  N   LIG    1       52.730  65.275  33.717  0.00  0.00    -0.241 NA
ATOM     27  C   LIG    1       51.382  65.317  33.738  0.00  0.00    +0.154 A 
ATOM     32  C   LIG    1       50.659  64.591  34.698  0.00  0.00    +0.038 A 
BRANCH  27  28
ATOM     28  C   LIG    1       50.765  66.146  32.644  0.00  0.00    +0.435 C 
ATOM     29  F   LIG    1       51.055  67.414  32.860  0.00  0.00    -0.164 F 
ATOM     30  F   LIG    1       49.464  65.981  32.496  0.00  0.00    -0.164 F 
ATOM     31  F   LIG    1       51.360  65.789  31.526  0.00  0.00    -0.164 F 
ENDBRANCH  27  28
ENDBRANCH   2   1
BRANCH   5   6
ATOM      6  C   LIG    1       48.502  60.577  39.265  0.00  0.00    +0.077 C 
ATOM      7  C   LIG    1       49.505  59.415  39.204  0.00  0.00    +0.044 C 
ATOM      8  C   LIG    1       49.302  58.659  40.518  0.00  0.00    +0.150 C 
ATOM     16  N   LIG    1       48.794  59.670  41.438  0.00  0.00    -0.209 NA
ATOM     17  C   LIG    1       48.461  60.918  40.763  0.00  0.00    +0.105 C 
BRANCH   8   9
ATOM      9  C   LIG    1       50.555  57.960  41.011  0.00  0.00    +0.242 C 
ATOM     10  O   LIG    1       51.646  58.516  40.890  0.00  0.00    -0.273 OA
ATOM     11  N   LIG    1       50.391  56.770  41.604  0.00  0.00    -0.268 N 
ATOM     12  C   LIG    1       49.057  56.162  41.705  0.00  0.00    +0.106 C 
ATOM     13  C   LIG    1       49.099  54.815  42.434  0.00  0.00    +0.081 C 
ATOM     14  S   LIG    1       50.765  54.351  42.380  0.00  0.00    -0.117 S 
ATOM     15  C   LIG    1       51.473  55.965  42.187  0.00  0.00    +0.152 C 
ENDBRANCH   8   9
ENDBRANCH   5   6
TORSDOF 4
ENDMDL
