MODEL 7
REMARK VINA RESULT:    -7.075      5.102      6.874
REMARK INTER + INTRA:          -9.432
REMARK INTER:                  -8.548
REMARK INTRA:                  -0.884
REMARK UNBOUND:                -0.702
REMARK  Name = ligand_1
REMARK                            x       y       z     vdW  Elec       q    Type
REMARK                         _______ _______ _______ _____ _____    ______ ____
ROOT
ATOM      2  N   LIG    1       51.790  59.579  37.707  0.00  0.00    -0.305 N 
ATOM      3  C   LIG    1       51.614  58.565  36.671  0.00  0.00    +0.108 C 
ATOM      4  C   LIG    1       51.332  59.261  35.335  0.00  0.00    +0.094 C 
ATOM      5  N   LIG    1       52.370  60.266  35.061  0.00  0.00    -0.270 NA
ATOM     18  C   LIG    1       52.556  61.267  36.104  0.00  0.00    +0.094 C 
ATOM     19  C   LIG    1       52.842  60.569  37.432  0.00  0.00    +0.108 C 
ENDROOT
BRANCH   2   1
ATOM      1  C   LIG    1       51.674  59.123  39.067  0.00  0.00    +0.051 A 
ATOM     20  C   LIG    1       50.611  59.517  39.912  0.00  0.00    +0.031 A 
ATOM     21  C   LIG    1       49.674  60.469  39.518  0.00  0.00    +0.003 A 
ATOM     22  C   LIG    1       48.640  60.842  40.372  0.00  0.00    +0.000 A 
ATOM     23  C   LIG    1       48.520  60.276  41.642  0.00  0.00    +0.002 A 
ATOM     24  C   LIG    1       49.446  59.321  42.051  0.00  0.00    +0.019 A 
ATOM     25  C   LIG    1       50.476  58.949  41.194  0.00  0.00    +0.082 A 
ATOM     26  N   LIG    1       51.360  58.035  41.630  0.00  0.00    -0.241 NA
ATOM     27  C   LIG    1       52.393  57.636  40.860  0.00  0.00    +0.154 A 
ATOM     32  C   LIG    1       52.563  58.155  39.567  0.00  0.00    +0.038 A 
BRANCH  27  28
ATOM     28  C   LIG    1       53.272  56.589  41.487  0.00  0.00    +0.435 C 
ATOM     29  F   LIG    1       54.528  56.975  41.386  0.00  0.00    -0.164 F 
ATOM     30  F   LIG    1       53.115  55.373  40.998  0.00  0.00    -0.164 F 
ATOM     31  F   LIG    1       52.968  56.564  42.767  0.00  0.00    -0.164 F 
ENDBRANCH  27  28
ENDBRANCH   2   1
BRANCH   5   6
ATOM      6  C   LIG    1       52.078  60.966  33.779  0.00  0.00    +0.077 C 
ATOM      7  C   LIG    1       50.680  61.602  33.754  0.00  0.00    +0.044 C 
ATOM      8  C   LIG    1       50.797  62.757  32.759  0.00  0.00    +0.150 C 
ATOM     16  N   LIG    1       52.209  63.124  32.802  0.00  0.00    -0.209 NA
ATOM     17  C   LIG    1       53.008  62.170  33.559  0.00  0.00    +0.105 C 
BRANCH   8   9
ATOM      9  C   LIG    1       49.858  63.910  33.060  0.00  0.00    +0.242 C 
ATOM     10  O   LIG    1       50.227  64.812  33.811  0.00  0.00    -0.273 OA
ATOM     11  N   LIG    1       48.670  63.901  32.439  0.00  0.00    -0.268 N 
ATOM     12  C   LIG    1       48.293  62.785  31.562  0.00  0.00    +0.106 C 
ATOM     13  C   LIG    1       46.906  62.990  30.945  0.00  0.00    +0.081 C 
ATOM     14  S   LIG    1       46.170  64.200  31.939  0.00  0.00    -0.117 S 
ATOM     15  C   LIG    1       47.649  64.950  32.565  0.00  0.00    +0.152 C 
ENDBRANCH   8   9
ENDBRANCH   5   6
TORSDOF 4
ENDMDL
