MODEL 8
REMARK VINA RESULT:    -7.428      4.688      7.950
REMARK INTER + INTRA:          -9.848
REMARK INTER:                  -8.938
REMARK INTRA:                  -0.910
REMARK UNBOUND:                -0.684
REMARK  Name = ligand_1
REMARK                            x       y       z     vdW  Elec       q    Type
REMARK                         _______ _______ _______ _____ _____    ______ ____
ROOT
ATOM      2  N   LIG    1       49.068  62.148  36.064  0.00  0.00    -0.305 N 
ATOM      3  C   LIG    1       49.370  60.799  35.594  0.00  0.00    +0.108 C 
ATOM      4  C   LIG    1       49.780  59.934  36.791  0.00  0.00    +0.094 C 
ATOM      5  N   LIG    1       48.760  60.018  37.847  0.00  0.00    -0.270 NA
ATOM     18  C   LIG    1       48.448  61.366  38.302  0.00  0.00    +0.094 C 
ATOM     19  C   LIG    1       48.035  62.223  37.107  0.00  0.00    +0.108 C 
ENDROOT
BRANCH   2   1
ATOM      1  C   LIG    1       49.048  63.180  35.061  0.00  0.00    +0.051 A 
ATOM     20  C   LIG    1       50.128  64.071  34.865  0.00  0.00    +0.031 A 
ATOM     21  C   LIG    1       51.232  64.083  35.714  0.00  0.00    +0.003 A 
ATOM     22  C   LIG    1       52.281  64.974  35.501  0.00  0.00    +0.000 A 
ATOM     23  C   LIG    1       52.247  65.877  34.437  0.00  0.00    +0.002 A 
ATOM     24  C   LIG    1       51.153  65.877  33.578  0.00  0.00    +0.019 A 
ATOM     25  C   LIG    1       50.109  64.983  33.793  0.00  0.00    +0.082 A 
ATOM     26  N   LIG    1       49.062  65.023  32.951  0.00  0.00    -0.241 NA
ATOM     27  C   LIG    1       48.007  64.197  33.105  0.00  0.00    +0.154 A 
ATOM     32  C   LIG    1       47.983  63.254  34.145  0.00  0.00    +0.038 A 
BRANCH  27  28
ATOM     28  C   LIG    1       46.933  64.353  32.063  0.00  0.00    +0.435 C 
ATOM     29  F   LIG    1       46.487  65.592  32.097  0.00  0.00    -0.164 F 
ATOM     30  F   LIG    1       45.937  63.493  32.166  0.00  0.00    -0.164 F 
ATOM     31  F   LIG    1       47.516  64.175  30.897  0.00  0.00    -0.164 F 
ENDBRANCH  27  28
ENDBRANCH   2   1
BRANCH   5   6
ATOM      6  C   LIG    1       49.174  59.203  39.023  0.00  0.00    +0.077 C 
ATOM      7  C   LIG    1       50.378  58.297  38.724  0.00  0.00    +0.044 C 
ATOM      8  C   LIG    1       51.048  58.082  40.081  0.00  0.00    +0.150 C 
ATOM     16  N   LIG    1       50.685  59.268  40.851  0.00  0.00    -0.209 NA
ATOM     17  C   LIG    1       49.684  60.083  40.176  0.00  0.00    +0.105 C 
BRANCH   8   9
ATOM      9  C   LIG    1       52.545  57.852  39.985  0.00  0.00    +0.242 C 
ATOM     10  O   LIG    1       53.196  58.448  39.128  0.00  0.00    -0.273 OA
ATOM     11  N   LIG    1       53.090  57.028  40.890  0.00  0.00    -0.268 N 
ATOM     12  C   LIG    1       52.248  56.342  41.880  0.00  0.00    +0.106 C 
ATOM     13  C   LIG    1       53.079  55.467  42.824  0.00  0.00    +0.081 C 
ATOM     14  S   LIG    1       54.589  55.266  42.004  0.00  0.00    -0.117 S 
ATOM     15  C   LIG    1       54.523  56.718  40.989  0.00  0.00    +0.152 C 
ENDBRANCH   8   9
ENDBRANCH   5   6
TORSDOF 4
ENDMDL
