MODEL 8
REMARK VINA RESULT:    -6.667      6.054      8.484
REMARK INTER + INTRA:          -8.928
REMARK INTER:                  -9.494
REMARK INTRA:                   0.567
REMARK UNBOUND:                -0.702
REMARK  Name = ligand_1
REMARK                            x       y       z     vdW  Elec       q    Type
REMARK                         _______ _______ _______ _____ _____    ______ ____
ROOT
ATOM      2  N   LIG    1       52.504  63.409  35.582  0.00  0.00    -0.305 N 
ATOM      3  C   LIG    1       52.597  64.401  34.516  0.00  0.00    +0.108 C 
ATOM      4  C   LIG    1       51.337  64.322  33.648  0.00  0.00    +0.094 C 
ATOM      5  N   LIG    1       50.136  64.418  34.492  0.00  0.00    -0.270 NA
ATOM     18  C   LIG    1       50.053  63.437  35.566  0.00  0.00    +0.094 C 
ATOM     19  C   LIG    1       51.309  63.523  36.431  0.00  0.00    +0.108 C 
ENDROOT
BRANCH   2   1
ATOM      1  C   LIG    1       53.736  63.071  36.245  0.00  0.00    +0.051 A 
ATOM     20  C   LIG    1       54.182  61.736  36.386  0.00  0.00    +0.031 A 
ATOM     21  C   LIG    1       53.395  60.655  35.999  0.00  0.00    +0.003 A 
ATOM     22  C   LIG    1       53.856  59.350  36.153  0.00  0.00    +0.000 A 
ATOM     23  C   LIG    1       55.113  59.096  36.703  0.00  0.00    +0.002 A 
ATOM     24  C   LIG    1       55.914  60.165  37.093  0.00  0.00    +0.019 A 
ATOM     25  C   LIG    1       55.450  61.467  36.934  0.00  0.00    +0.082 A 
ATOM     26  N   LIG    1       56.246  62.473  37.337  0.00  0.00    -0.241 NA
ATOM     27  C   LIG    1       55.858  63.760  37.227  0.00  0.00    +0.154 A 
ATOM     32  C   LIG    1       54.611  64.086  36.669  0.00  0.00    +0.038 A 
BRANCH  27  28
ATOM     28  C   LIG    1       56.875  64.763  37.699  0.00  0.00    +0.435 C 
ATOM     29  F   LIG    1       58.079  64.252  37.536  0.00  0.00    -0.164 F 
ATOM     30  F   LIG    1       56.706  65.175  38.941  0.00  0.00    -0.164 F 
ATOM     31  F   LIG    1       56.774  65.802  36.898  0.00  0.00    -0.164 F 
ENDBRANCH  27  28
ENDBRANCH   2   1
BRANCH   5   6
ATOM      6  C   LIG    1       48.911  64.307  33.652  0.00  0.00    +0.077 C 
ATOM      7  C   LIG    1       49.189  63.690  32.273  0.00  0.00    +0.044 C 
ATOM      8  C   LIG    1       47.861  63.060  31.855  0.00  0.00    +0.150 C 
ATOM     16  N   LIG    1       47.194  62.759  33.117  0.00  0.00    -0.209 NA
ATOM     17  C   LIG    1       47.886  63.338  34.262  0.00  0.00    +0.105 C 
BRANCH   8   9
ATOM      9  C   LIG    1       48.024  61.854  30.949  0.00  0.00    +0.242 C 
ATOM     10  O   LIG    1       47.239  61.686  30.016  0.00  0.00    -0.273 OA
ATOM     11  N   LIG    1       49.065  61.048  31.196  0.00  0.00    -0.268 N 
ATOM     12  C   LIG    1       49.956  61.305  32.335  0.00  0.00    +0.106 C 
ATOM     13  C   LIG    1       51.086  60.273  32.418  0.00  0.00    +0.081 C 
ATOM     14  S   LIG    1       50.537  58.958  31.437  0.00  0.00    -0.117 S 
ATOM     15  C   LIG    1       49.416  59.862  30.402  0.00  0.00    +0.152 C 
ENDBRANCH   8   9
ENDBRANCH   5   6
TORSDOF 4
ENDMDL
