MODEL 5
REMARK VINA RESULT:    -7.658      6.613      9.347
REMARK INTER + INTRA:         -10.146
REMARK INTER:                  -9.192
REMARK INTRA:                  -0.954
REMARK UNBOUND:                -0.698
REMARK  Name = ligand_1
REMARK                            x       y       z     vdW  Elec       q    Type
REMARK                         _______ _______ _______ _____ _____    ______ ____
ROOT
ATOM      2  N   LIG    1       52.388  63.252  35.593  0.00  0.00    -0.305 N 
ATOM      3  C   LIG    1       52.460  64.136  34.433  0.00  0.00    +0.108 C 
ATOM      4  C   LIG    1       51.154  64.025  33.639  0.00  0.00    +0.094 C 
ATOM      5  N   LIG    1       50.003  64.248  34.528  0.00  0.00    -0.270 NA
ATOM     18  C   LIG    1       49.942  63.377  35.694  0.00  0.00    +0.094 C 
ATOM     19  C   LIG    1       51.244  63.494  36.484  0.00  0.00    +0.108 C 
ENDROOT
BRANCH   2   1
ATOM      1  C   LIG    1       53.640  62.930  36.224  0.00  0.00    +0.051 A 
ATOM     20  C   LIG    1       54.100  61.600  36.365  0.00  0.00    +0.031 A 
ATOM     21  C   LIG    1       53.310  60.509  36.010  0.00  0.00    +0.003 A 
ATOM     22  C   LIG    1       53.785  59.210  36.163  0.00  0.00    +0.000 A 
ATOM     23  C   LIG    1       55.059  58.970  36.680  0.00  0.00    +0.002 A 
ATOM     24  C   LIG    1       55.863  60.048  37.037  0.00  0.00    +0.019 A 
ATOM     25  C   LIG    1       55.385  61.345  36.880  0.00  0.00    +0.082 A 
ATOM     26  N   LIG    1       56.184  62.360  37.251  0.00  0.00    -0.241 NA
ATOM     27  C   LIG    1       55.783  63.643  37.140  0.00  0.00    +0.154 A 
ATOM     32  C   LIG    1       54.519  63.955  36.615  0.00  0.00    +0.038 A 
BRANCH  27  28
ATOM     28  C   LIG    1       56.806  64.657  37.574  0.00  0.00    +0.435 C 
ATOM     29  F   LIG    1       56.671  65.739  36.834  0.00  0.00    -0.164 F 
ATOM     30  F   LIG    1       58.053  64.226  37.550  0.00  0.00    -0.164 F 
ATOM     31  F   LIG    1       56.504  64.986  38.813  0.00  0.00    -0.164 F 
ENDBRANCH  27  28
ENDBRANCH   2   1
BRANCH   5   6
ATOM      6  C   LIG    1       48.732  64.108  33.763  0.00  0.00    +0.077 C 
ATOM      7  C   LIG    1       48.953  63.596  32.332  0.00  0.00    +0.044 C 
ATOM      8  C   LIG    1       47.641  62.906  31.960  0.00  0.00    +0.150 C 
ATOM     16  N   LIG    1       47.083  62.485  33.241  0.00  0.00    -0.209 NA
ATOM     17  C   LIG    1       47.814  63.037  34.373  0.00  0.00    +0.105 C 
BRANCH   8   9
ATOM      9  C   LIG    1       47.816  61.771  30.968  0.00  0.00    +0.242 C 
ATOM     10  O   LIG    1       48.725  60.958  31.132  0.00  0.00    -0.273 OA
ATOM     11  N   LIG    1       46.922  61.693  29.973  0.00  0.00    -0.268 N 
ATOM     12  C   LIG    1       45.868  62.707  29.834  0.00  0.00    +0.106 C 
ATOM     13  C   LIG    1       44.949  62.413  28.643  0.00  0.00    +0.081 C 
ATOM     14  S   LIG    1       45.849  61.296  27.675  0.00  0.00    -0.117 S 
ATOM     15  C   LIG    1       46.897  60.642  28.947  0.00  0.00    +0.152 C 
ENDBRANCH   8   9
ENDBRANCH   5   6
TORSDOF 4
ENDMDL
