MODEL 3
REMARK VINA RESULT:    -7.706      4.962      9.282
REMARK INTER + INTRA:         -10.192
REMARK INTER:                  -9.894
REMARK INTRA:                  -0.298
REMARK UNBOUND:                -0.684
REMARK  Name = ligand_1
REMARK                            x       y       z     vdW  Elec       q    Type
REMARK                         _______ _______ _______ _____ _____    ______ ____
ROOT
ATOM      2  N   LIG    1       50.962  62.349  37.131  0.00  0.00    -0.305 N 
ATOM      3  C   LIG    1       50.083  61.376  36.490  0.00  0.00    +0.108 C 
ATOM      4  C   LIG    1       49.613  60.361  37.537  0.00  0.00    +0.094 C 
ATOM      5  N   LIG    1       49.035  61.061  38.695  0.00  0.00    -0.270 NA
ATOM     18  C   LIG    1       49.908  62.044  39.323  0.00  0.00    +0.094 C 
ATOM     19  C   LIG    1       50.370  63.056  38.277  0.00  0.00    +0.108 C 
ENDROOT
BRANCH   2   1
ATOM      1  C   LIG    1       51.796  63.128  36.254  0.00  0.00    +0.051 A 
ATOM     20  C   LIG    1       51.272  63.877  35.175  0.00  0.00    +0.031 A 
ATOM     21  C   LIG    1       49.928  63.810  34.819  0.00  0.00    +0.003 A 
ATOM     22  C   LIG    1       49.439  64.555  33.750  0.00  0.00    +0.000 A 
ATOM     23  C   LIG    1       50.285  65.381  33.007  0.00  0.00    +0.002 A 
ATOM     24  C   LIG    1       51.631  65.462  33.350  0.00  0.00    +0.019 A 
ATOM     25  C   LIG    1       52.114  64.718  34.422  0.00  0.00    +0.082 A 
ATOM     26  N   LIG    1       53.423  64.810  34.714  0.00  0.00    -0.241 NA
ATOM     27  C   LIG    1       53.965  64.108  35.730  0.00  0.00    +0.154 A 
ATOM     32  C   LIG    1       53.168  63.270  36.526  0.00  0.00    +0.038 A 
BRANCH  27  28
ATOM     28  C   LIG    1       55.436  64.345  35.940  0.00  0.00    +0.435 C 
ATOM     29  F   LIG    1       55.780  65.452  35.311  0.00  0.00    -0.164 F 
ATOM     30  F   LIG    1       56.212  63.341  35.578  0.00  0.00    -0.164 F 
ATOM     31  F   LIG    1       55.600  64.555  37.228  0.00  0.00    -0.164 F 
ENDBRANCH  27  28
ENDBRANCH   2   1
BRANCH   5   6
ATOM      6  C   LIG    1       48.609  60.076  39.727  0.00  0.00    +0.077 C 
ATOM      7  C   LIG    1       49.414  58.769  39.670  0.00  0.00    +0.044 C 
ATOM      8  C   LIG    1       49.344  58.208  41.090  0.00  0.00    +0.150 C 
ATOM     16  N   LIG    1       49.151  59.385  41.931  0.00  0.00    -0.209 NA
ATOM     17  C   LIG    1       48.881  60.586  41.151  0.00  0.00    +0.105 C 
BRANCH   8   9
ATOM      9  C   LIG    1       50.555  57.378  41.472  0.00  0.00    +0.242 C 
ATOM     10  O   LIG    1       51.682  57.852  41.335  0.00  0.00    -0.273 OA
ATOM     11  N   LIG    1       50.319  56.165  41.991  0.00  0.00    -0.268 N 
ATOM     12  C   LIG    1       48.945  55.660  42.116  0.00  0.00    +0.106 C 
ATOM     13  C   LIG    1       48.907  54.265  42.749  0.00  0.00    +0.081 C 
ATOM     14  S   LIG    1       50.525  53.675  42.580  0.00  0.00    -0.117 S 
ATOM     15  C   LIG    1       51.356  55.237  42.463  0.00  0.00    +0.152 C 
ENDBRANCH   8   9
ENDBRANCH   5   6
TORSDOF 4
ENDMDL
