MODEL 4
REMARK VINA RESULT:    -7.675      4.590      8.805
REMARK INTER + INTRA:         -10.167
REMARK INTER:                  -9.531
REMARK INTRA:                  -0.636
REMARK UNBOUND:                -0.698
REMARK  Name = ligand_1
REMARK                            x       y       z     vdW  Elec       q    Type
REMARK                         _______ _______ _______ _____ _____    ______ ____
ROOT
ATOM      2  N   LIG    1       50.756  63.038  36.617  0.00  0.00    -0.305 N 
ATOM      3  C   LIG    1       49.449  62.616  36.124  0.00  0.00    +0.108 C 
ATOM      4  C   LIG    1       48.961  61.426  36.958  0.00  0.00    +0.094 C 
ATOM      5  N   LIG    1       49.015  61.757  38.390  0.00  0.00    -0.270 NA
ATOM     18  C   LIG    1       50.317  62.195  38.877  0.00  0.00    +0.094 C 
ATOM     19  C   LIG    1       50.796  63.383  38.046  0.00  0.00    +0.108 C 
ENDROOT
BRANCH   2   1
ATOM      1  C   LIG    1       51.532  63.865  35.732  0.00  0.00    +0.051 A 
ATOM     20  C   LIG    1       52.946  63.825  35.699  0.00  0.00    +0.031 A 
ATOM     21  C   LIG    1       53.680  63.069  36.609  0.00  0.00    +0.003 A 
ATOM     22  C   LIG    1       55.071  63.052  36.557  0.00  0.00    +0.000 A 
ATOM     23  C   LIG    1       55.761  63.793  35.596  0.00  0.00    +0.002 A 
ATOM     24  C   LIG    1       55.043  64.552  34.678  0.00  0.00    +0.019 A 
ATOM     25  C   LIG    1       53.653  64.565  34.732  0.00  0.00    +0.082 A 
ATOM     26  N   LIG    1       52.994  65.321  33.837  0.00  0.00    -0.241 NA
ATOM     27  C   LIG    1       51.647  65.394  33.837  0.00  0.00    +0.154 A 
ATOM     32  C   LIG    1       50.892  64.662  34.767  0.00  0.00    +0.038 A 
BRANCH  27  28
ATOM     28  C   LIG    1       51.068  66.264  32.755  0.00  0.00    +0.435 C 
ATOM     29  F   LIG    1       49.769  66.051  32.691  0.00  0.00    -0.164 F 
ATOM     30  F   LIG    1       51.627  66.112  31.569  0.00  0.00    -0.164 F 
ATOM     31  F   LIG    1       51.245  67.509  33.142  0.00  0.00    -0.164 F 
ENDBRANCH  27  28
ENDBRANCH   2   1
BRANCH   5   6
ATOM      6  C   LIG    1       48.572  60.590  39.202  0.00  0.00    +0.077 C 
ATOM      7  C   LIG    1       49.574  59.425  39.164  0.00  0.00    +0.044 C 
ATOM      8  C   LIG    1       49.338  58.669  40.471  0.00  0.00    +0.150 C 
ATOM     16  N   LIG    1       48.811  59.681  41.380  0.00  0.00    -0.209 NA
ATOM     17  C   LIG    1       48.497  60.930  40.699  0.00  0.00    +0.105 C 
BRANCH   8   9
ATOM      9  C   LIG    1       50.578  57.967  40.993  0.00  0.00    +0.242 C 
ATOM     10  O   LIG    1       51.673  58.520  40.899  0.00  0.00    -0.273 OA
ATOM     11  N   LIG    1       50.397  56.776  41.581  0.00  0.00    -0.268 N 
ATOM     12  C   LIG    1       49.060  56.171  41.648  0.00  0.00    +0.106 C 
ATOM     13  C   LIG    1       49.082  54.822  42.376  0.00  0.00    +0.081 C 
ATOM     14  S   LIG    1       50.748  54.355  42.361  0.00  0.00    -0.117 S 
ATOM     15  C   LIG    1       51.464  55.968  42.188  0.00  0.00    +0.152 C 
ENDBRANCH   8   9
ENDBRANCH   5   6
TORSDOF 4
ENDMDL
