MODEL 6
REMARK VINA RESULT:    -7.489      4.651      7.989
REMARK INTER + INTRA:          -9.900
REMARK INTER:                  -8.997
REMARK INTRA:                  -0.903
REMARK UNBOUND:                -0.659
REMARK  Name = ligand_1
REMARK                            x       y       z     vdW  Elec       q    Type
REMARK                         _______ _______ _______ _____ _____    ______ ____
ROOT
ATOM      2  N   LIG    1       49.106  62.128  36.047  0.00  0.00    -0.305 N 
ATOM      3  C   LIG    1       49.500  60.798  35.592  0.00  0.00    +0.108 C 
ATOM      4  C   LIG    1       49.883  59.947  36.808  0.00  0.00    +0.094 C 
ATOM      5  N   LIG    1       48.801  59.975  37.804  0.00  0.00    -0.270 NA
ATOM     18  C   LIG    1       48.397  61.304  38.244  0.00  0.00    +0.094 C 
ATOM     19  C   LIG    1       48.012  62.146  37.029  0.00  0.00    +0.108 C 
ENDROOT
BRANCH   2   1
ATOM      1  C   LIG    1       49.092  63.162  35.047  0.00  0.00    +0.051 A 
ATOM     20  C   LIG    1       50.168  64.064  34.872  0.00  0.00    +0.031 A 
ATOM     21  C   LIG    1       51.257  64.084  35.739  0.00  0.00    +0.003 A 
ATOM     22  C   LIG    1       52.300  64.986  35.547  0.00  0.00    +0.000 A 
ATOM     23  C   LIG    1       52.276  65.892  34.486  0.00  0.00    +0.002 A 
ATOM     24  C   LIG    1       51.197  65.884  33.608  0.00  0.00    +0.019 A 
ATOM     25  C   LIG    1       50.158  64.980  33.803  0.00  0.00    +0.082 A 
ATOM     26  N   LIG    1       49.125  65.012  32.943  0.00  0.00    -0.241 NA
ATOM     27  C   LIG    1       48.075  64.175  33.077  0.00  0.00    +0.154 A 
ATOM     32  C   LIG    1       48.043  63.229  34.114  0.00  0.00    +0.038 A 
BRANCH  27  28
ATOM     28  C   LIG    1       47.018  64.324  32.017  0.00  0.00    +0.435 C 
ATOM     29  F   LIG    1       45.883  63.840  32.481  0.00  0.00    -0.164 F 
ATOM     30  F   LIG    1       47.322  63.776  30.856  0.00  0.00    -0.164 F 
ATOM     31  F   LIG    1       46.851  65.617  31.836  0.00  0.00    -0.164 F 
ENDBRANCH  27  28
ENDBRANCH   2   1
BRANCH   5   6
ATOM      6  C   LIG    1       49.186  59.176  39.000  0.00  0.00    +0.077 C 
ATOM      7  C   LIG    1       50.409  58.280  38.748  0.00  0.00    +0.044 C 
ATOM      8  C   LIG    1       51.038  58.085  40.127  0.00  0.00    +0.150 C 
ATOM     16  N   LIG    1       50.639  59.273  40.874  0.00  0.00    -0.209 NA
ATOM     17  C   LIG    1       49.650  60.071  40.161  0.00  0.00    +0.105 C 
BRANCH   8   9
ATOM      9  C   LIG    1       52.539  57.869  40.080  0.00  0.00    +0.242 C 
ATOM     10  O   LIG    1       53.210  58.462  39.235  0.00  0.00    -0.273 OA
ATOM     11  N   LIG    1       53.065  57.063  41.013  0.00  0.00    -0.268 N 
ATOM     12  C   LIG    1       52.200  56.382  41.985  0.00  0.00    +0.106 C 
ATOM     13  C   LIG    1       53.010  55.528  42.966  0.00  0.00    +0.081 C 
ATOM     14  S   LIG    1       54.547  55.333  42.196  0.00  0.00    -0.117 S 
ATOM     15  C   LIG    1       54.497  56.771  41.160  0.00  0.00    +0.152 C 
ENDBRANCH   8   9
ENDBRANCH   5   6
TORSDOF 4
ENDMDL
