MODEL 9
REMARK VINA RESULT:    -6.615      3.870      5.290
REMARK INTER + INTRA:          -8.864
REMARK INTER:                  -8.116
REMARK INTRA:                  -0.748
REMARK UNBOUND:                -0.702
REMARK  Name = ligand_1
REMARK                            x       y       z     vdW  Elec       q    Type
REMARK                         _______ _______ _______ _____ _____    ______ ____
ROOT
ATOM      2  N   LIG    1       52.147  57.991  39.069  0.00  0.00    -0.305 N 
ATOM      3  C   LIG    1       51.287  59.144  38.821  0.00  0.00    +0.108 C 
ATOM      4  C   LIG    1       52.017  60.121  37.895  0.00  0.00    +0.094 C 
ATOM      5  N   LIG    1       52.488  59.419  36.691  0.00  0.00    -0.270 NA
ATOM     18  C   LIG    1       53.333  58.258  36.941  0.00  0.00    +0.094 C 
ATOM     19  C   LIG    1       52.599  57.285  37.861  0.00  0.00    +0.108 C 
ENDROOT
BRANCH   2   1
ATOM      1  C   LIG    1       51.802  57.173  40.202  0.00  0.00    +0.051 A 
ATOM     20  C   LIG    1       52.750  56.790  41.179  0.00  0.00    +0.031 A 
ATOM     21  C   LIG    1       54.105  57.079  41.040  0.00  0.00    +0.003 A 
ATOM     22  C   LIG    1       55.018  56.686  42.014  0.00  0.00    +0.000 A 
ATOM     23  C   LIG    1       54.598  55.990  43.149  0.00  0.00    +0.002 A 
ATOM     24  C   LIG    1       53.248  55.695  43.305  0.00  0.00    +0.019 A 
ATOM     25  C   LIG    1       52.338  56.092  42.330  0.00  0.00    +0.082 A 
ATOM     26  N   LIG    1       51.045  55.776  42.509  0.00  0.00    -0.241 NA
ATOM     27  C   LIG    1       50.108  56.115  41.600  0.00  0.00    +0.154 A 
ATOM     32  C   LIG    1       50.460  56.829  40.443  0.00  0.00    +0.038 A 
BRANCH  27  28
ATOM     28  C   LIG    1       48.706  55.710  41.964  0.00  0.00    +0.435 C 
ATOM     29  F   LIG    1       47.895  56.718  41.714  0.00  0.00    -0.164 F 
ATOM     30  F   LIG    1       48.561  55.289  43.206  0.00  0.00    -0.164 F 
ATOM     31  F   LIG    1       48.378  54.728  41.152  0.00  0.00    -0.164 F 
ENDBRANCH  27  28
ENDBRANCH   2   1
BRANCH   5   6
ATOM      6  C   LIG    1       53.227  60.362  35.805  0.00  0.00    +0.077 C 
ATOM      7  C   LIG    1       52.418  61.625  35.475  0.00  0.00    +0.044 C 
ATOM      8  C   LIG    1       53.470  62.693  35.177  0.00  0.00    +0.150 C 
ATOM     16  N   LIG    1       54.641  62.263  35.934  0.00  0.00    -0.209 NA
ATOM     17  C   LIG    1       54.481  60.927  36.492  0.00  0.00    +0.105 C 
BRANCH   8   9
ATOM      9  C   LIG    1       53.012  64.101  35.510  0.00  0.00    +0.242 C 
ATOM     10  O   LIG    1       53.183  64.541  36.646  0.00  0.00    -0.273 OA
ATOM     11  N   LIG    1       52.478  64.816  34.510  0.00  0.00    -0.268 N 
ATOM     12  C   LIG    1       52.296  64.221  33.179  0.00  0.00    +0.106 C 
ATOM     13  C   LIG    1       51.686  65.218  32.188  0.00  0.00    +0.081 C 
ATOM     14  S   LIG    1       51.008  66.455  33.190  0.00  0.00    -0.117 S 
ATOM     15  C   LIG    1       52.022  66.207  34.623  0.00  0.00    +0.152 C 
ENDBRANCH   8   9
ENDBRANCH   5   6
TORSDOF 4
ENDMDL
