MODEL 2
REMARK VINA RESULT:    -8.184      5.444      9.855
REMARK INTER + INTRA:         -10.781
REMARK INTER:                  -9.933
REMARK INTRA:                  -0.849
REMARK UNBOUND:                -0.684
REMARK  Name = ligand_1
REMARK                            x       y       z     vdW  Elec       q    Type
REMARK                         _______ _______ _______ _____ _____    ______ ____
ROOT
ATOM      2  N   LIG    1       51.174  62.565  37.502  0.00  0.00    -0.305 N 
ATOM      3  C   LIG    1       50.711  63.326  38.658  0.00  0.00    +0.108 C 
ATOM      4  C   LIG    1       49.559  62.568  39.327  0.00  0.00    +0.094 C 
ATOM      5  N   LIG    1       49.964  61.182  39.609  0.00  0.00    -0.270 NA
ATOM     18  C   LIG    1       50.442  60.429  38.457  0.00  0.00    +0.094 C 
ATOM     19  C   LIG    1       51.592  61.186  37.797  0.00  0.00    +0.108 C 
ENDROOT
BRANCH   2   1
ATOM      1  C   LIG    1       51.965  63.287  36.542  0.00  0.00    +0.051 A 
ATOM     20  C   LIG    1       51.395  63.940  35.425  0.00  0.00    +0.031 A 
ATOM     21  C   LIG    1       50.041  63.822  35.118  0.00  0.00    +0.003 A 
ATOM     22  C   LIG    1       49.506  64.472  34.010  0.00  0.00    +0.000 A 
ATOM     23  C   LIG    1       50.312  65.252  33.179  0.00  0.00    +0.002 A 
ATOM     24  C   LIG    1       51.666  65.383  33.472  0.00  0.00    +0.019 A 
ATOM     25  C   LIG    1       52.196  64.734  34.582  0.00  0.00    +0.082 A 
ATOM     26  N   LIG    1       53.511  64.871  34.824  0.00  0.00    -0.241 NA
ATOM     27  C   LIG    1       54.098  64.260  35.874  0.00  0.00    +0.154 A 
ATOM     32  C   LIG    1       53.342  63.473  36.757  0.00  0.00    +0.038 A 
BRANCH  27  28
ATOM     28  C   LIG    1       55.570  64.539  36.017  0.00  0.00    +0.435 C 
ATOM     29  F   LIG    1       56.243  63.545  35.474  0.00  0.00    -0.164 F 
ATOM     30  F   LIG    1       55.970  64.756  37.256  0.00  0.00    -0.164 F 
ATOM     31  F   LIG    1       55.815  65.619  35.306  0.00  0.00    -0.164 F 
ENDBRANCH  27  28
ENDBRANCH   2   1
BRANCH   5   6
ATOM      6  C   LIG    1       48.833  60.436  40.228  0.00  0.00    +0.077 C 
ATOM      7  C   LIG    1       48.573  59.081  39.552  0.00  0.00    +0.044 C 
ATOM      8  C   LIG    1       47.921  58.225  40.638  0.00  0.00    +0.150 C 
ATOM     16  N   LIG    1       48.419  58.791  41.887  0.00  0.00    -0.209 NA
ATOM     17  C   LIG    1       49.137  60.042  41.683  0.00  0.00    +0.105 C 
BRANCH   8   9
ATOM      9  C   LIG    1       48.202  56.742  40.485  0.00  0.00    +0.242 C 
ATOM     10  O   LIG    1       49.302  56.297  40.813  0.00  0.00    -0.273 OA
ATOM     11  N   LIG    1       47.197  55.978  40.036  0.00  0.00    -0.268 N 
ATOM     12  C   LIG    1       45.913  56.581  39.655  0.00  0.00    +0.106 C 
ATOM     13  C   LIG    1       44.905  55.525  39.187  0.00  0.00    +0.081 C 
ATOM     14  S   LIG    1       45.875  54.138  38.830  0.00  0.00    -0.117 S 
ATOM     15  C   LIG    1       47.260  54.520  39.868  0.00  0.00    +0.152 C 
ENDBRANCH   8   9
ENDBRANCH   5   6
TORSDOF 4
ENDMDL
