MODEL 4
REMARK VINA RESULT:    -7.793      9.370     12.213
REMARK INTER + INTRA:         -10.313
REMARK INTER:                  -9.878
REMARK INTRA:                  -0.435
REMARK UNBOUND:                -0.698
REMARK  Name = ligand_1
REMARK                            x       y       z     vdW  Elec       q    Type
REMARK                         _______ _______ _______ _____ _____    ______ ____
ROOT
ATOM      2  N   LIG    1       56.779  55.556  34.171  0.00  0.00    -0.305 N 
ATOM      3  C   LIG    1       57.078  56.554  35.194  0.00  0.00    +0.108 C 
ATOM      4  C   LIG    1       56.046  56.438  36.321  0.00  0.00    +0.094 C 
ATOM      5  N   LIG    1       55.976  55.049  36.800  0.00  0.00    -0.270 NA
ATOM     18  C   LIG    1       55.693  54.053  35.775  0.00  0.00    +0.094 C 
ATOM     19  C   LIG    1       56.727  54.169  34.657  0.00  0.00    +0.108 C 
ENDROOT
BRANCH   2   1
ATOM      1  C   LIG    1       57.384  55.766  32.883  0.00  0.00    +0.051 A 
ATOM     20  C   LIG    1       56.881  55.173  31.702  0.00  0.00    +0.031 A 
ATOM     21  C   LIG    1       55.840  54.249  31.730  0.00  0.00    +0.003 A 
ATOM     22  C   LIG    1       55.367  53.676  30.553  0.00  0.00    +0.000 A 
ATOM     23  C   LIG    1       55.928  54.010  29.319  0.00  0.00    +0.002 A 
ATOM     24  C   LIG    1       56.967  54.934  29.272  0.00  0.00    +0.019 A 
ATOM     25  C   LIG    1       57.435  55.505  30.451  0.00  0.00    +0.082 A 
ATOM     26  N   LIG    1       58.450  56.382  30.366  0.00  0.00    -0.241 NA
ATOM     27  C   LIG    1       58.965  56.966  31.468  0.00  0.00    +0.154 A 
ATOM     32  C   LIG    1       58.438  56.685  32.739  0.00  0.00    +0.038 A 
BRANCH  27  28
ATOM     28  C   LIG    1       60.079  57.940  31.197  0.00  0.00    +0.435 C 
ATOM     29  F   LIG    1       61.231  57.329  31.384  0.00  0.00    -0.164 F 
ATOM     30  F   LIG    1       60.019  59.054  31.903  0.00  0.00    -0.164 F 
ATOM     31  F   LIG    1       59.999  58.252  29.921  0.00  0.00    -0.164 F 
ENDBRANCH  27  28
ENDBRANCH   2   1
BRANCH   5   6
ATOM      6  C   LIG    1       54.949  54.931  37.873  0.00  0.00    +0.077 C 
ATOM      7  C   LIG    1       55.541  55.087  39.282  0.00  0.00    +0.044 C 
ATOM      8  C   LIG    1       54.379  55.595  40.137  0.00  0.00    +0.150 C 
ATOM     16  N   LIG    1       53.514  56.287  39.188  0.00  0.00    -0.209 NA
ATOM     17  C   LIG    1       53.918  56.069  37.806  0.00  0.00    +0.105 C 
BRANCH   8   9
ATOM      9  C   LIG    1       54.821  56.459  41.303  0.00  0.00    +0.242 C 
ATOM     10  O   LIG    1       55.281  57.580  41.086  0.00  0.00    -0.273 OA
ATOM     11  N   LIG    1       54.638  55.958  42.532  0.00  0.00    -0.268 N 
ATOM     12  C   LIG    1       54.091  54.607  42.714  0.00  0.00    +0.106 C 
ATOM     13  C   LIG    1       53.949  54.246  44.197  0.00  0.00    +0.081 C 
ATOM     14  S   LIG    1       54.963  55.386  45.013  0.00  0.00    -0.117 S 
ATOM     15  C   LIG    1       54.956  56.661  43.782  0.00  0.00    +0.152 C 
ENDBRANCH   8   9
ENDBRANCH   5   6
TORSDOF 4
ENDMDL
