MODEL 7
REMARK VINA RESULT:    -7.618      4.561      8.744
REMARK INTER + INTRA:         -10.097
REMARK INTER:                  -9.419
REMARK INTRA:                  -0.677
REMARK UNBOUND:                -0.698
REMARK  Name = ligand_1
REMARK                            x       y       z     vdW  Elec       q    Type
REMARK                         _______ _______ _______ _____ _____    ______ ____
ROOT
ATOM      2  N   LIG    1       50.830  62.970  36.719  0.00  0.00    -0.305 N 
ATOM      3  C   LIG    1       49.535  62.478  36.258  0.00  0.00    +0.108 C 
ATOM      4  C   LIG    1       49.109  61.295  37.134  0.00  0.00    +0.094 C 
ATOM      5  N   LIG    1       49.168  61.673  38.555  0.00  0.00    -0.270 NA
ATOM     18  C   LIG    1       50.456  62.179  39.009  0.00  0.00    +0.094 C 
ATOM     19  C   LIG    1       50.874  63.360  38.136  0.00  0.00    +0.108 C 
ENDROOT
BRANCH   2   1
ATOM      1  C   LIG    1       51.559  63.801  35.798  0.00  0.00    +0.051 A 
ATOM     20  C   LIG    1       52.970  63.783  35.711  0.00  0.00    +0.031 A 
ATOM     21  C   LIG    1       53.751  63.046  36.599  0.00  0.00    +0.003 A 
ATOM     22  C   LIG    1       55.138  63.049  36.494  0.00  0.00    +0.000 A 
ATOM     23  C   LIG    1       55.779  63.793  35.502  0.00  0.00    +0.002 A 
ATOM     24  C   LIG    1       55.015  64.533  34.605  0.00  0.00    +0.019 A 
ATOM     25  C   LIG    1       53.628  64.524  34.712  0.00  0.00    +0.082 A 
ATOM     26  N   LIG    1       52.924  65.263  33.837  0.00  0.00    -0.241 NA
ATOM     27  C   LIG    1       51.577  65.315  33.888  0.00  0.00    +0.154 A 
ATOM     32  C   LIG    1       50.869  64.579  34.852  0.00  0.00    +0.038 A 
BRANCH  27  28
ATOM     28  C   LIG    1       50.943  66.166  32.822  0.00  0.00    +0.435 C 
ATOM     29  F   LIG    1       50.999  67.428  33.198  0.00  0.00    -0.164 F 
ATOM     30  F   LIG    1       49.707  65.825  32.508  0.00  0.00    -0.164 F 
ATOM     31  F   LIG    1       51.694  66.040  31.748  0.00  0.00    -0.164 F 
ENDBRANCH  27  28
ENDBRANCH   2   1
BRANCH   5   6
ATOM      6  C   LIG    1       48.785  60.513  39.408  0.00  0.00    +0.077 C 
ATOM      7  C   LIG    1       49.725  59.310  39.232  0.00  0.00    +0.044 C 
ATOM      8  C   LIG    1       49.629  58.547  40.553  0.00  0.00    +0.150 C 
ATOM     16  N   LIG    1       49.265  59.567  41.530  0.00  0.00    -0.209 NA
ATOM     17  C   LIG    1       48.918  60.836  40.905  0.00  0.00    +0.105 C 
BRANCH   8   9
ATOM      9  C   LIG    1       50.895  57.789  40.904  0.00  0.00    +0.242 C 
ATOM     10  O   LIG    1       51.990  58.275  40.623  0.00  0.00    -0.273 OA
ATOM     11  N   LIG    1       50.745  56.628  41.557  0.00  0.00    -0.268 N 
ATOM     12  C   LIG    1       49.405  56.104  41.851  0.00  0.00    +0.106 C 
ATOM     13  C   LIG    1       49.468  54.779  42.617  0.00  0.00    +0.081 C 
ATOM     14  S   LIG    1       51.084  54.215  42.365  0.00  0.00    -0.117 S 
ATOM     15  C   LIG    1       51.849  55.778  42.024  0.00  0.00    +0.152 C 
ENDBRANCH   8   9
ENDBRANCH   5   6
TORSDOF 4
ENDMDL
