MODEL 9
REMARK VINA RESULT:    -7.308      6.198      9.730
REMARK INTER + INTRA:          -9.798
REMARK INTER:                  -9.647
REMARK INTRA:                  -0.152
REMARK UNBOUND:                -0.781
REMARK  Name = ligand_1
REMARK                            x       y       z     vdW  Elec       q    Type
REMARK                         _______ _______ _______ _____ _____    ______ ____
ROOT
ATOM      2  N   LIG    1       55.432  60.589  36.886  0.00  0.00    -0.305 N 
ATOM      3  C   LIG    1       56.322  59.657  36.200  0.00  0.00    +0.108 C 
ATOM      4  C   LIG    1       56.155  58.263  36.813  0.00  0.00    +0.094 C 
ATOM      5  N   LIG    1       54.734  57.883  36.823  0.00  0.00    -0.270 NA
ATOM     18  C   LIG    1       53.845  58.822  37.494  0.00  0.00    +0.094 C 
ATOM     19  C   LIG    1       54.011  60.208  36.876  0.00  0.00    +0.108 C 
ENDROOT
BRANCH   2   1
ATOM      1  C   LIG    1       55.726  61.987  36.721  0.00  0.00    +0.051 A 
ATOM     20  C   LIG    1       55.050  62.800  35.782  0.00  0.00    +0.031 A 
ATOM     21  C   LIG    1       54.140  62.268  34.871  0.00  0.00    +0.003 A 
ATOM     22  C   LIG    1       53.492  63.090  33.954  0.00  0.00    +0.000 A 
ATOM     23  C   LIG    1       53.742  64.463  33.922  0.00  0.00    +0.002 A 
ATOM     24  C   LIG    1       54.646  65.012  34.826  0.00  0.00    +0.019 A 
ATOM     25  C   LIG    1       55.289  64.187  35.743  0.00  0.00    +0.082 A 
ATOM     26  N   LIG    1       56.167  64.751  36.590  0.00  0.00    -0.241 NA
ATOM     27  C   LIG    1       56.839  64.012  37.497  0.00  0.00    +0.154 A 
ATOM     32  C   LIG    1       56.624  62.628  37.592  0.00  0.00    +0.038 A 
BRANCH  27  28
ATOM     28  C   LIG    1       57.762  64.801  38.386  0.00  0.00    +0.435 C 
ATOM     29  F   LIG    1       57.531  64.467  39.639  0.00  0.00    -0.164 F 
ATOM     30  F   LIG    1       57.691  66.110  38.229  0.00  0.00    -0.164 F 
ATOM     31  F   LIG    1       58.984  64.413  38.092  0.00  0.00    -0.164 F 
ENDBRANCH  27  28
ENDBRANCH   2   1
BRANCH   5   6
ATOM      6  C   LIG    1       54.569  56.541  37.450  0.00  0.00    +0.077 C 
ATOM      7  C   LIG    1       54.613  56.593  38.984  0.00  0.00    +0.044 C 
ATOM      8  C   LIG    1       53.805  55.376  39.436  0.00  0.00    +0.150 C 
ATOM     16  N   LIG    1       52.877  55.134  38.337  0.00  0.00    -0.209 NA
ATOM     17  C   LIG    1       53.180  55.945  37.166  0.00  0.00    +0.105 C 
BRANCH   8   9
ATOM      9  C   LIG    1       53.125  55.569  40.778  0.00  0.00    +0.242 C 
ATOM     10  O   LIG    1       52.067  56.196  40.837  0.00  0.00    -0.273 OA
ATOM     11  N   LIG    1       53.705  54.993  41.840  0.00  0.00    -0.268 N 
ATOM     12  C   LIG    1       54.974  54.266  41.696  0.00  0.00    +0.106 C 
ATOM     13  C   LIG    1       55.445  53.675  43.029  0.00  0.00    +0.081 C 
ATOM     14  S   LIG    1       54.543  54.543  44.224  0.00  0.00    -0.117 S 
ATOM     15  C   LIG    1       53.172  55.026  43.209  0.00  0.00    +0.152 C 
ENDBRANCH   8   9
ENDBRANCH   5   6
TORSDOF 4
ENDMDL
