MODEL 3
REMARK VINA RESULT:    -7.698      1.928      3.120
REMARK INTER + INTRA:         -10.279
REMARK INTER:                 -10.406
REMARK INTRA:                   0.126
REMARK UNBOUND:                -0.781
REMARK  Name = ligand_1
REMARK                            x       y       z     vdW  Elec       q    Type
REMARK                         _______ _______ _______ _____ _____    ______ ____
ROOT
ATOM      2  N   LIG    1       50.498  61.652  38.815  0.00  0.00    -0.305 N 
ATOM      3  C   LIG    1       50.227  63.077  38.978  0.00  0.00    +0.108 C 
ATOM      4  C   LIG    1       51.363  63.879  38.333  0.00  0.00    +0.094 C 
ATOM      5  N   LIG    1       51.570  63.433  36.946  0.00  0.00    -0.270 NA
ATOM     18  C   LIG    1       51.824  62.008  36.784  0.00  0.00    +0.094 C 
ATOM     19  C   LIG    1       50.687  61.214  37.425  0.00  0.00    +0.108 C 
ENDROOT
BRANCH   2   1
ATOM      1  C   LIG    1       49.766  60.764  39.678  0.00  0.00    +0.051 A 
ATOM     20  C   LIG    1       48.373  60.888  39.891  0.00  0.00    +0.031 A 
ATOM     21  C   LIG    1       47.644  61.956  39.374  0.00  0.00    +0.003 A 
ATOM     22  C   LIG    1       46.275  62.056  39.602  0.00  0.00    +0.000 A 
ATOM     23  C   LIG    1       45.603  61.094  40.358  0.00  0.00    +0.002 A 
ATOM     24  C   LIG    1       46.315  60.019  40.880  0.00  0.00    +0.019 A 
ATOM     25  C   LIG    1       47.683  59.921  40.647  0.00  0.00    +0.082 A 
ATOM     26  N   LIG    1       48.340  58.877  41.180  0.00  0.00    -0.241 NA
ATOM     27  C   LIG    1       49.669  58.723  41.008  0.00  0.00    +0.154 A 
ATOM     32  C   LIG    1       50.403  59.647  40.247  0.00  0.00    +0.038 A 
BRANCH  27  28
ATOM     28  C   LIG    1       50.244  57.489  41.648  0.00  0.00    +0.435 C 
ATOM     29  F   LIG    1       50.884  56.794  40.728  0.00  0.00    -0.164 F 
ATOM     30  F   LIG    1       49.363  56.734  42.277  0.00  0.00    -0.164 F 
ATOM     31  F   LIG    1       51.136  57.903  42.522  0.00  0.00    -0.164 F 
ENDBRANCH  27  28
ENDBRANCH   2   1
BRANCH   5   6
ATOM      6  C   LIG    1       52.695  64.189  36.329  0.00  0.00    +0.077 C 
ATOM      7  C   LIG    1       54.023  63.993  37.077  0.00  0.00    +0.044 C 
ATOM      8  C   LIG    1       55.102  64.236  36.021  0.00  0.00    +0.150 C 
ATOM     16  N   LIG    1       54.450  63.898  34.760  0.00  0.00    -0.209 NA
ATOM     17  C   LIG    1       53.018  63.680  34.915  0.00  0.00    +0.105 C 
BRANCH   8   9
ATOM      9  C   LIG    1       56.380  63.459  36.275  0.00  0.00    +0.242 C 
ATOM     10  O   LIG    1       56.598  62.428  35.640  0.00  0.00    -0.273 OA
ATOM     11  N   LIG    1       57.238  63.979  37.163  0.00  0.00    -0.268 N 
ATOM     12  C   LIG    1       56.906  65.211  37.891  0.00  0.00    +0.106 C 
ATOM     13  C   LIG    1       58.033  65.633  38.839  0.00  0.00    +0.081 C 
ATOM     14  S   LIG    1       58.997  64.207  39.019  0.00  0.00    -0.117 S 
ATOM     15  C   LIG    1       58.544  63.401  37.506  0.00  0.00    +0.152 C 
ENDBRANCH   8   9
ENDBRANCH   5   6
TORSDOF 4
ENDMDL
