MODEL 7
REMARK VINA RESULT:    -7.278      4.950      8.866
REMARK INTER + INTRA:          -9.639
REMARK INTER:                  -8.802
REMARK INTRA:                  -0.837
REMARK UNBOUND:                -0.659
REMARK  Name = ligand_1
REMARK                            x       y       z     vdW  Elec       q    Type
REMARK                         _______ _______ _______ _____ _____    ______ ____
ROOT
ATOM      2  N   LIG    1       48.622  62.121  36.610  0.00  0.00    -0.305 N 
ATOM      3  C   LIG    1       49.125  60.759  36.460  0.00  0.00    +0.108 C 
ATOM      4  C   LIG    1       48.974  60.021  37.794  0.00  0.00    +0.094 C 
ATOM      5  N   LIG    1       47.588  60.129  38.275  0.00  0.00    -0.270 NA
ATOM     18  C   LIG    1       47.081  61.488  38.408  0.00  0.00    +0.094 C 
ATOM     19  C   LIG    1       47.230  62.218  37.075  0.00  0.00    +0.108 C 
ENDROOT
BRANCH   2   1
ATOM      1  C   LIG    1       49.033  63.064  35.604  0.00  0.00    +0.051 A 
ATOM     20  C   LIG    1       50.311  63.669  35.606  0.00  0.00    +0.031 A 
ATOM     21  C   LIG    1       51.210  63.482  36.654  0.00  0.00    +0.003 A 
ATOM     22  C   LIG    1       52.460  64.093  36.633  0.00  0.00    +0.000 A 
ATOM     23  C   LIG    1       52.840  64.910  35.567  0.00  0.00    +0.002 A 
ATOM     24  C   LIG    1       51.955  65.107  34.511  0.00  0.00    +0.019 A 
ATOM     25  C   LIG    1       50.708  64.492  34.535  0.00  0.00    +0.082 A 
ATOM     26  N   LIG    1       49.875  64.717  33.504  0.00  0.00    -0.241 NA
ATOM     27  C   LIG    1       48.644  64.166  33.465  0.00  0.00    +0.154 A 
ATOM     32  C   LIG    1       48.205  63.322  34.497  0.00  0.00    +0.038 A 
BRANCH  27  28
ATOM     28  C   LIG    1       47.850  64.498  32.231  0.00  0.00    +0.435 C 
ATOM     29  F   LIG    1       46.626  64.828  32.591  0.00  0.00    -0.164 F 
ATOM     30  F   LIG    1       47.828  63.545  31.318  0.00  0.00    -0.164 F 
ATOM     31  F   LIG    1       48.409  65.566  31.703  0.00  0.00    -0.164 F 
ENDBRANCH  27  28
ENDBRANCH   2   1
BRANCH   5   6
ATOM      6  C   LIG    1       47.448  59.439  39.589  0.00  0.00    +0.077 C 
ATOM      7  C   LIG    1       48.384  58.229  39.727  0.00  0.00    +0.044 C 
ATOM      8  C   LIG    1       48.604  58.080  41.233  0.00  0.00    +0.150 C 
ATOM     16  N   LIG    1       48.407  59.427  41.758  0.00  0.00    -0.209 NA
ATOM     17  C   LIG    1       47.877  60.342  40.756  0.00  0.00    +0.105 C 
BRANCH   8   9
ATOM      9  C   LIG    1       49.950  57.477  41.589  0.00  0.00    +0.242 C 
ATOM     10  O   LIG    1       50.963  58.172  41.518  0.00  0.00    -0.273 OA
ATOM     11  N   LIG    1       49.951  56.206  42.014  0.00  0.00    -0.268 N 
ATOM     12  C   LIG    1       48.702  55.434  42.064  0.00  0.00    +0.106 C 
ATOM     13  C   LIG    1       48.932  54.015  42.596  0.00  0.00    +0.081 C 
ATOM     14  S   LIG    1       50.637  53.768  42.432  0.00  0.00    -0.117 S 
ATOM     15  C   LIG    1       51.144  55.467  42.448  0.00  0.00    +0.152 C 
ENDBRANCH   8   9
ENDBRANCH   5   6
TORSDOF 4
ENDMDL
