MODEL 8
REMARK VINA RESULT:    -6.966      5.809      9.218
REMARK INTER + INTRA:          -9.302
REMARK INTER:                  -8.622
REMARK INTRA:                  -0.680
REMARK UNBOUND:                -0.707
REMARK  Name = ligand_1
REMARK                            x       y       z     vdW  Elec       q    Type
REMARK                         _______ _______ _______ _____ _____    ______ ____
ROOT
ATOM      2  N   LIG    1       50.206  62.576  35.753  0.00  0.00    -0.305 N 
ATOM      3  C   LIG    1       50.722  63.229  36.952  0.00  0.00    +0.108 C 
ATOM      4  C   LIG    1       50.715  62.224  38.110  0.00  0.00    +0.094 C 
ATOM      5  N   LIG    1       51.417  60.994  37.714  0.00  0.00    -0.270 NA
ATOM     18  C   LIG    1       50.912  60.352  36.507  0.00  0.00    +0.094 C 
ATOM     19  C   LIG    1       50.925  61.356  35.356  0.00  0.00    +0.108 C 
ENDROOT
BRANCH   2   1
ATOM      1  C   LIG    1       49.776  63.446  34.691  0.00  0.00    +0.051 A 
ATOM     20  C   LIG    1       48.436  63.493  34.242  0.00  0.00    +0.031 A 
ATOM     21  C   LIG    1       47.471  62.609  34.719  0.00  0.00    +0.003 A 
ATOM     22  C   LIG    1       46.160  62.674  34.257  0.00  0.00    +0.000 A 
ATOM     23  C   LIG    1       45.783  63.621  33.303  0.00  0.00    +0.002 A 
ATOM     24  C   LIG    1       46.734  64.513  32.817  0.00  0.00    +0.019 A 
ATOM     25  C   LIG    1       48.043  64.447  33.284  0.00  0.00    +0.082 A 
ATOM     26  N   LIG    1       48.936  65.315  32.780  0.00  0.00    -0.241 NA
ATOM     27  C   LIG    1       50.227  65.301  33.175  0.00  0.00    +0.154 A 
ATOM     32  C   LIG    1       50.668  64.384  34.142  0.00  0.00    +0.038 A 
BRANCH  27  28
ATOM     28  C   LIG    1       51.088  66.355  32.534  0.00  0.00    +0.435 C 
ATOM     29  F   LIG    1       50.340  67.405  32.261  0.00  0.00    -0.164 F 
ATOM     30  F   LIG    1       51.742  65.953  31.460  0.00  0.00    -0.164 F 
ATOM     31  F   LIG    1       51.967  66.721  33.443  0.00  0.00    -0.164 F 
ENDBRANCH  27  28
ENDBRANCH   2   1
BRANCH   5   6
ATOM      6  C   LIG    1       51.382  60.005  38.827  0.00  0.00    +0.077 C 
ATOM      7  C   LIG    1       50.110  60.117  39.682  0.00  0.00    +0.044 C 
ATOM      8  C   LIG    1       49.919  58.721  40.277  0.00  0.00    +0.150 C 
ATOM     16  N   LIG    1       50.565  57.832  39.318  0.00  0.00    -0.209 NA
ATOM     17  C   LIG    1       51.320  58.560  38.306  0.00  0.00    +0.105 C 
BRANCH   8   9
ATOM      9  C   LIG    1       48.467  58.375  40.548  0.00  0.00    +0.242 C 
ATOM     10  O   LIG    1       47.577  59.050  40.031  0.00  0.00    -0.273 OA
ATOM     11  N   LIG    1       48.234  57.302  41.316  0.00  0.00    -0.268 N 
ATOM     12  C   LIG    1       49.348  56.549  41.907  0.00  0.00    +0.106 C 
ATOM     13  C   LIG    1       48.854  55.355  42.730  0.00  0.00    +0.081 C 
ATOM     14  S   LIG    1       47.184  55.700  43.024  0.00  0.00    -0.117 S 
ATOM     15  C   LIG    1       46.901  56.783  41.649  0.00  0.00    +0.152 C 
ENDBRANCH   8   9
ENDBRANCH   5   6
TORSDOF 4
ENDMDL
