MODEL 3
REMARK VINA RESULT:    -7.859      1.928      3.127
REMARK INTER + INTRA:         -10.394
REMARK INTER:                 -10.447
REMARK INTRA:                   0.052
REMARK UNBOUND:                -0.698
REMARK  Name = ligand_1
REMARK                            x       y       z     vdW  Elec       q    Type
REMARK                         _______ _______ _______ _____ _____    ______ ____
ROOT
ATOM      2  N   LIG    1       50.562  61.715  38.726  0.00  0.00    -0.305 N 
ATOM      3  C   LIG    1       50.440  63.149  38.972  0.00  0.00    +0.108 C 
ATOM      4  C   LIG    1       51.592  63.875  38.271  0.00  0.00    +0.094 C 
ATOM      5  N   LIG    1       51.647  63.484  36.854  0.00  0.00    -0.270 NA
ATOM     18  C   LIG    1       51.752  62.051  36.610  0.00  0.00    +0.094 C 
ATOM     19  C   LIG    1       50.599  61.332  37.307  0.00  0.00    +0.108 C 
ENDROOT
BRANCH   2   1
ATOM      1  C   LIG    1       49.818  60.854  39.607  0.00  0.00    +0.051 A 
ATOM     20  C   LIG    1       48.424  60.990  39.806  0.00  0.00    +0.031 A 
ATOM     21  C   LIG    1       47.705  62.048  39.255  0.00  0.00    +0.003 A 
ATOM     22  C   LIG    1       46.335  62.162  39.470  0.00  0.00    +0.000 A 
ATOM     23  C   LIG    1       45.652  61.224  40.246  0.00  0.00    +0.002 A 
ATOM     24  C   LIG    1       46.355  60.160  40.803  0.00  0.00    +0.019 A 
ATOM     25  C   LIG    1       47.724  60.048  40.582  0.00  0.00    +0.082 A 
ATOM     26  N   LIG    1       48.371  59.016  41.149  0.00  0.00    -0.241 NA
ATOM     27  C   LIG    1       49.701  58.850  40.991  0.00  0.00    +0.154 A 
ATOM     32  C   LIG    1       50.445  59.749  40.211  0.00  0.00    +0.038 A 
BRANCH  27  28
ATOM     28  C   LIG    1       50.264  57.631  41.668  0.00  0.00    +0.435 C 
ATOM     29  F   LIG    1       49.287  57.003  42.291  0.00  0.00    -0.164 F 
ATOM     30  F   LIG    1       51.265  57.873  42.493  0.00  0.00    -0.164 F 
ATOM     31  F   LIG    1       50.696  56.839  40.711  0.00  0.00    -0.164 F 
ENDBRANCH  27  28
ENDBRANCH   2   1
BRANCH   5   6
ATOM      6  C   LIG    1       52.788  64.165  36.180  0.00  0.00    +0.077 C 
ATOM      7  C   LIG    1       54.104  64.034  36.961  0.00  0.00    +0.044 C 
ATOM      8  C   LIG    1       55.198  64.161  35.901  0.00  0.00    +0.150 C 
ATOM     16  N   LIG    1       54.560  63.704  34.672  0.00  0.00    -0.209 NA
ATOM     17  C   LIG    1       53.124  63.514  34.829  0.00  0.00    +0.105 C 
BRANCH   8   9
ATOM      9  C   LIG    1       56.466  63.404  36.250  0.00  0.00    +0.242 C 
ATOM     10  O   LIG    1       56.719  62.348  35.671  0.00  0.00    -0.273 OA
ATOM     11  N   LIG    1       57.277  63.965  37.156  0.00  0.00    -0.268 N 
ATOM     12  C   LIG    1       56.905  65.225  37.814  0.00  0.00    +0.106 C 
ATOM     13  C   LIG    1       57.983  65.693  38.797  0.00  0.00    +0.081 C 
ATOM     14  S   LIG    1       58.943  64.282  39.084  0.00  0.00    -0.117 S 
ATOM     15  C   LIG    1       58.568  63.410  37.586  0.00  0.00    +0.152 C 
ENDBRANCH   8   9
ENDBRANCH   5   6
TORSDOF 4
ENDMDL
