MODEL 2
REMARK VINA RESULT:    -7.540      2.939      3.919
REMARK INTER + INTRA:         -10.139
REMARK INTER:                  -9.534
REMARK INTRA:                  -0.604
REMARK UNBOUND:                -0.835
REMARK  Name = ligand_1
REMARK                            x       y       z     vdW  Elec       q    Type
REMARK                         _______ _______ _______ _____ _____    ______ ____
ROOT
ATOM      2  N   LIG    1       50.725  63.032  36.575  0.00  0.00    -0.305 N 
ATOM      3  C   LIG    1       49.393  62.652  36.117  0.00  0.00    +0.108 C 
ATOM      4  C   LIG    1       48.901  61.460  36.946  0.00  0.00    +0.094 C 
ATOM      5  N   LIG    1       49.009  61.764  38.381  0.00  0.00    -0.270 NA
ATOM     18  C   LIG    1       50.336  62.160  38.833  0.00  0.00    +0.094 C 
ATOM     19  C   LIG    1       50.819  63.351  38.008  0.00  0.00    +0.108 C 
ENDROOT
BRANCH   2   1
ATOM      1  C   LIG    1       51.494  63.856  35.680  0.00  0.00    +0.051 A 
ATOM     20  C   LIG    1       52.906  63.806  35.626  0.00  0.00    +0.031 A 
ATOM     21  C   LIG    1       53.649  63.044  36.524  0.00  0.00    +0.003 A 
ATOM     22  C   LIG    1       55.039  63.016  36.451  0.00  0.00    +0.000 A 
ATOM     23  C   LIG    1       55.719  63.755  35.481  0.00  0.00    +0.002 A 
ATOM     24  C   LIG    1       54.993  64.520  34.575  0.00  0.00    +0.019 A 
ATOM     25  C   LIG    1       53.604  64.542  34.649  0.00  0.00    +0.082 A 
ATOM     26  N   LIG    1       52.938  65.305  33.766  0.00  0.00    -0.241 NA
ATOM     27  C   LIG    1       51.591  65.387  33.786  0.00  0.00    +0.154 A 
ATOM     32  C   LIG    1       50.845  64.659  34.726  0.00  0.00    +0.038 A 
BRANCH  27  28
ATOM     28  C   LIG    1       51.002  66.263  32.714  0.00  0.00    +0.435 C 
ATOM     29  F   LIG    1       51.653  66.050  31.588  0.00  0.00    -0.164 F 
ATOM     30  F   LIG    1       50.979  67.550  33.006  0.00  0.00    -0.164 F 
ATOM     31  F   LIG    1       49.763  65.854  32.538  0.00  0.00    -0.164 F 
ENDBRANCH  27  28
ENDBRANCH   2   1
BRANCH   5   6
ATOM      6  C   LIG    1       48.562  60.594  39.186  0.00  0.00    +0.077 C 
ATOM      7  C   LIG    1       49.576  59.439  39.170  0.00  0.00    +0.044 C 
ATOM      8  C   LIG    1       49.323  58.683  40.474  0.00  0.00    +0.150 C 
ATOM     16  N   LIG    1       48.768  59.691  41.371  0.00  0.00    -0.209 NA
ATOM     17  C   LIG    1       48.455  60.936  40.681  0.00  0.00    +0.105 C 
BRANCH   8   9
ATOM      9  C   LIG    1       50.560  57.994  41.021  0.00  0.00    +0.242 C 
ATOM     10  O   LIG    1       51.653  58.551  40.931  0.00  0.00    -0.273 OA
ATOM     11  N   LIG    1       50.377  56.812  41.626  0.00  0.00    -0.268 N 
ATOM     12  C   LIG    1       49.042  56.203  41.688  0.00  0.00    +0.106 C 
ATOM     13  C   LIG    1       49.061  54.866  42.437  0.00  0.00    +0.081 C 
ATOM     14  S   LIG    1       50.729  54.406  42.449  0.00  0.00    -0.117 S 
ATOM     15  C   LIG    1       51.440  56.019  42.258  0.00  0.00    +0.152 C 
ENDBRANCH   8   9
ENDBRANCH   5   6
TORSDOF 4
ENDMDL
