MODEL 3
REMARK VINA RESULT:    -7.719      4.973      9.312
REMARK INTER + INTRA:         -10.227
REMARK INTER:                  -9.958
REMARK INTRA:                  -0.269
REMARK UNBOUND:                -0.702
REMARK  Name = ligand_1
REMARK                            x       y       z     vdW  Elec       q    Type
REMARK                         _______ _______ _______ _____ _____    ______ ____
ROOT
ATOM      2  N   LIG    1       50.968  62.401  37.218  0.00  0.00    -0.305 N 
ATOM      3  C   LIG    1       50.049  61.467  36.576  0.00  0.00    +0.108 C 
ATOM      4  C   LIG    1       49.563  60.451  37.615  0.00  0.00    +0.094 C 
ATOM      5  N   LIG    1       49.026  61.151  38.792  0.00  0.00    -0.270 NA
ATOM     18  C   LIG    1       49.939  62.096  39.422  0.00  0.00    +0.094 C 
ATOM     19  C   LIG    1       50.417  63.109  38.383  0.00  0.00    +0.108 C 
ENDROOT
BRANCH   2   1
ATOM      1  C   LIG    1       51.812  63.167  36.339  0.00  0.00    +0.051 A 
ATOM     20  C   LIG    1       51.301  63.904  35.246  0.00  0.00    +0.031 A 
ATOM     21  C   LIG    1       49.960  63.835  34.877  0.00  0.00    +0.003 A 
ATOM     22  C   LIG    1       49.484  64.567  33.793  0.00  0.00    +0.000 A 
ATOM     23  C   LIG    1       50.340  65.382  33.049  0.00  0.00    +0.002 A 
ATOM     24  C   LIG    1       51.682  65.464  33.404  0.00  0.00    +0.019 A 
ATOM     25  C   LIG    1       52.153  64.732  34.490  0.00  0.00    +0.082 A 
ATOM     26  N   LIG    1       53.459  64.825  34.794  0.00  0.00    -0.241 NA
ATOM     27  C   LIG    1       53.989  64.135  35.824  0.00  0.00    +0.154 A 
ATOM     32  C   LIG    1       53.182  63.309  36.622  0.00  0.00    +0.038 A 
BRANCH  27  28
ATOM     28  C   LIG    1       55.459  64.371  36.045  0.00  0.00    +0.435 C 
ATOM     29  F   LIG    1       56.126  63.316  35.623  0.00  0.00    -0.164 F 
ATOM     30  F   LIG    1       55.787  64.668  37.288  0.00  0.00    -0.164 F 
ATOM     31  F   LIG    1       55.793  65.384  35.274  0.00  0.00    -0.164 F 
ENDBRANCH  27  28
ENDBRANCH   2   1
BRANCH   5   6
ATOM      6  C   LIG    1       48.585  60.163  39.816  0.00  0.00    +0.077 C 
ATOM      7  C   LIG    1       49.355  58.837  39.734  0.00  0.00    +0.044 C 
ATOM      8  C   LIG    1       49.284  58.259  41.148  0.00  0.00    +0.150 C 
ATOM     16  N   LIG    1       49.133  59.430  42.005  0.00  0.00    -0.209 NA
ATOM     17  C   LIG    1       48.886  60.647  41.244  0.00  0.00    +0.105 C 
BRANCH   8   9
ATOM      9  C   LIG    1       50.477  57.392  41.505  0.00  0.00    +0.242 C 
ATOM     10  O   LIG    1       51.615  57.840  41.365  0.00  0.00    -0.273 OA
ATOM     11  N   LIG    1       50.215  56.178  42.008  0.00  0.00    -0.268 N 
ATOM     12  C   LIG    1       48.829  55.707  42.138  0.00  0.00    +0.106 C 
ATOM     13  C   LIG    1       48.761  54.304  42.750  0.00  0.00    +0.081 C 
ATOM     14  S   LIG    1       50.362  53.675  42.557  0.00  0.00    -0.117 S 
ATOM     15  C   LIG    1       51.231  55.217  42.456  0.00  0.00    +0.152 C 
ENDBRANCH   8   9
ENDBRANCH   5   6
TORSDOF 4
ENDMDL
