MODEL 1
REMARK VINA RESULT:    -8.458      0.000      0.000
REMARK INTER + INTRA:         -11.142
REMARK INTER:                 -10.435
REMARK INTRA:                  -0.707
REMARK UNBOUND:                -0.707
REMARK  Name = ligand_1
REMARK                            x       y       z     vdW  Elec       q    Type
REMARK                         _______ _______ _______ _____ _____    ______ ____
ROOT
ATOM      2  N   LIG    1       50.240  61.782  38.314  0.00  0.00    -0.305 N 
ATOM      3  C   LIG    1       50.299  63.183  38.722  0.00  0.00    +0.108 C 
ATOM      4  C   LIG    1       51.524  63.839  38.077  0.00  0.00    +0.094 C 
ATOM      5  N   LIG    1       51.513  63.609  36.624  0.00  0.00    -0.270 NA
ATOM     18  C   LIG    1       51.437  62.212  36.218  0.00  0.00    +0.094 C 
ATOM     19  C   LIG    1       50.212  61.563  36.860  0.00  0.00    +0.108 C 
ENDROOT
BRANCH   2   1
ATOM      1  C   LIG    1       49.406  60.923  39.111  0.00  0.00    +0.051 A 
ATOM     20  C   LIG    1       49.928  59.852  39.874  0.00  0.00    +0.031 A 
ATOM     21  C   LIG    1       51.270  59.487  39.803  0.00  0.00    +0.003 A 
ATOM     22  C   LIG    1       51.756  58.426  40.561  0.00  0.00    +0.000 A 
ATOM     23  C   LIG    1       50.912  57.701  41.404  0.00  0.00    +0.002 A 
ATOM     24  C   LIG    1       49.569  58.054  41.488  0.00  0.00    +0.019 A 
ATOM     25  C   LIG    1       49.087  59.117  40.731  0.00  0.00    +0.082 A 
ATOM     26  N   LIG    1       47.781  59.419  40.828  0.00  0.00    -0.241 NA
ATOM     27  C   LIG    1       47.240  60.427  40.113  0.00  0.00    +0.154 A 
ATOM     32  C   LIG    1       48.036  61.205  39.258  0.00  0.00    +0.038 A 
BRANCH  27  28
ATOM     28  C   LIG    1       45.772  60.649  40.357  0.00  0.00    +0.435 C 
ATOM     29  F   LIG    1       45.585  61.909  40.695  0.00  0.00    -0.164 F 
ATOM     30  F   LIG    1       45.234  59.840  41.251  0.00  0.00    -0.164 F 
ATOM     31  F   LIG    1       45.169  60.455  39.204  0.00  0.00    -0.164 F 
ENDBRANCH  27  28
ENDBRANCH   2   1
BRANCH   5   6
ATOM      6  C   LIG    1       52.721  64.219  36.001  0.00  0.00    +0.077 C 
ATOM      7  C   LIG    1       53.983  64.050  36.861  0.00  0.00    +0.044 C 
ATOM      8  C   LIG    1       55.140  64.099  35.863  0.00  0.00    +0.150 C 
ATOM     16  N   LIG    1       54.552  63.638  34.610  0.00  0.00    -0.209 NA
ATOM     17  C   LIG    1       53.103  63.518  34.688  0.00  0.00    +0.105 C 
BRANCH   8   9
ATOM      9  C   LIG    1       56.349  63.294  36.303  0.00  0.00    +0.242 C 
ATOM     10  O   LIG    1       56.545  62.181  35.817  0.00  0.00    -0.273 OA
ATOM     11  N   LIG    1       57.177  63.876  37.182  0.00  0.00    -0.268 N 
ATOM     12  C   LIG    1       56.873  65.205  37.727  0.00  0.00    +0.106 C 
ATOM     13  C   LIG    1       57.960  65.684  38.697  0.00  0.00    +0.081 C 
ATOM     14  S   LIG    1       58.820  64.243  39.119  0.00  0.00    -0.117 S 
ATOM     15  C   LIG    1       58.420  63.277  37.687  0.00  0.00    +0.152 C 
ENDBRANCH   8   9
ENDBRANCH   5   6
TORSDOF 4
ENDMDL
