MODEL 8
REMARK VINA RESULT:    -7.533      5.280      7.027
REMARK INTER + INTRA:          -9.993
REMARK INTER:                  -9.496
REMARK INTRA:                  -0.497
REMARK UNBOUND:                -0.698
REMARK  Name = ligand_1
REMARK                            x       y       z     vdW  Elec       q    Type
REMARK                         _______ _______ _______ _____ _____    ______ ____
ROOT
ATOM      2  N   LIG    1       53.610  57.987  38.745  0.00  0.00    -0.305 N 
ATOM      3  C   LIG    1       54.624  58.946  38.317  0.00  0.00    +0.108 C 
ATOM      4  C   LIG    1       54.145  59.645  37.041  0.00  0.00    +0.094 C 
ATOM      5  N   LIG    1       52.800  60.204  37.247  0.00  0.00    -0.270 NA
ATOM     18  C   LIG    1       51.792  59.249  37.689  0.00  0.00    +0.094 C 
ATOM     19  C   LIG    1       52.273  58.558  38.964  0.00  0.00    +0.108 C 
ENDROOT
BRANCH   2   1
ATOM      1  C   LIG    1       54.041  56.979  39.676  0.00  0.00    +0.051 A 
ATOM     20  C   LIG    1       54.847  55.883  39.291  0.00  0.00    +0.031 A 
ATOM     21  C   LIG    1       55.173  55.644  37.958  0.00  0.00    +0.003 A 
ATOM     22  C   LIG    1       55.964  54.555  37.605  0.00  0.00    +0.000 A 
ATOM     23  C   LIG    1       56.445  53.675  38.576  0.00  0.00    +0.002 A 
ATOM     24  C   LIG    1       56.131  53.899  39.913  0.00  0.00    +0.019 A 
ATOM     25  C   LIG    1       55.342  54.991  40.261  0.00  0.00    +0.082 A 
ATOM     26  N   LIG    1       55.047  55.166  41.561  0.00  0.00    -0.241 NA
ATOM     27  C   LIG    1       54.276  56.194  41.972  0.00  0.00    +0.154 A 
ATOM     32  C   LIG    1       53.773  57.124  41.049  0.00  0.00    +0.038 A 
BRANCH  27  28
ATOM     28  C   LIG    1       54.065  56.261  43.460  0.00  0.00    +0.435 C 
ATOM     29  F   LIG    1       54.238  55.057  43.967  0.00  0.00    -0.164 F 
ATOM     30  F   LIG    1       52.900  56.760  43.828  0.00  0.00    -0.164 F 
ATOM     31  F   LIG    1       55.018  57.032  43.938  0.00  0.00    -0.164 F 
ENDBRANCH  27  28
ENDBRANCH   2   1
BRANCH   5   6
ATOM      6  C   LIG    1       52.320  60.854  35.996  0.00  0.00    +0.077 C 
ATOM      7  C   LIG    1       51.642  62.209  36.252  0.00  0.00    +0.044 C 
ATOM      8  C   LIG    1       51.825  62.987  34.949  0.00  0.00    +0.150 C 
ATOM     16  N   LIG    1       53.031  62.418  34.359  0.00  0.00    -0.209 NA
ATOM     17  C   LIG    1       53.484  61.224  35.061  0.00  0.00    +0.105 C 
BRANCH   8   9
ATOM      9  C   LIG    1       51.893  64.489  35.149  0.00  0.00    +0.242 C 
ATOM     10  O   LIG    1       52.228  64.941  36.244  0.00  0.00    -0.273 OA
ATOM     11  N   LIG    1       51.624  65.255  34.083  0.00  0.00    -0.268 N 
ATOM     12  C   LIG    1       51.221  64.646  32.808  0.00  0.00    +0.106 C 
ATOM     13  C   LIG    1       50.980  65.702  31.724  0.00  0.00    +0.081 C 
ATOM     14  S   LIG    1       50.795  67.182  32.602  0.00  0.00    -0.117 S 
ATOM     15  C   LIG    1       51.685  66.723  34.066  0.00  0.00    +0.152 C 
ENDBRANCH   8   9
ENDBRANCH   5   6
TORSDOF 4
ENDMDL
