MODEL 9
REMARK VINA RESULT:    -6.015      5.781     10.024
REMARK INTER + INTRA:          -8.108
REMARK INTER:                  -7.823
REMARK INTRA:                  -0.285
REMARK UNBOUND:                -0.687
REMARK  Name = ligand_1
REMARK                            x       y       z     vdW  Elec       q    Type
REMARK                         _______ _______ _______ _____ _____    ______ ____
ROOT
ATOM      2  N   LIG    1       52.057  58.507  38.676  0.00  0.00    -0.305 N 
ATOM      3  C   LIG    1       50.987  59.191  37.955  0.00  0.00    +0.108 C 
ATOM      4  C   LIG    1       51.604  60.242  37.026  0.00  0.00    +0.094 C 
ATOM      5  N   LIG    1       52.636  59.624  36.179  0.00  0.00    -0.270 NA
ATOM     18  C   LIG    1       53.694  58.928  36.900  0.00  0.00    +0.094 C 
ATOM     19  C   LIG    1       53.075  57.878  37.821  0.00  0.00    +0.108 C 
ENDROOT
BRANCH   2   1
ATOM      1  C   LIG    1       51.665  57.780  39.854  0.00  0.00    +0.051 A 
ATOM     20  C   LIG    1       52.603  57.295  40.794  0.00  0.00    +0.031 A 
ATOM     21  C   LIG    1       53.976  57.384  40.575  0.00  0.00    +0.003 A 
ATOM     22  C   LIG    1       54.878  56.894  41.515  0.00  0.00    +0.000 A 
ATOM     23  C   LIG    1       54.428  56.298  42.695  0.00  0.00    +0.002 A 
ATOM     24  C   LIG    1       53.061  56.202  42.931  0.00  0.00    +0.019 A 
ATOM     25  C   LIG    1       52.163  56.696  41.990  0.00  0.00    +0.082 A 
ATOM     26  N   LIG    1       50.850  56.571  42.246  0.00  0.00    -0.241 NA
ATOM     27  C   LIG    1       49.920  57.014  41.374  0.00  0.00    +0.154 A 
ATOM     32  C   LIG    1       50.304  57.637  40.175  0.00  0.00    +0.038 A 
BRANCH  27  28
ATOM     28  C   LIG    1       48.498  56.822  41.824  0.00  0.00    +0.435 C 
ATOM     29  F   LIG    1       48.406  57.163  43.094  0.00  0.00    -0.164 F 
ATOM     30  F   LIG    1       48.018  55.608  41.629  0.00  0.00    -0.164 F 
ATOM     31  F   LIG    1       47.770  57.673  41.133  0.00  0.00    -0.164 F 
ENDBRANCH  27  28
ENDBRANCH   2   1
BRANCH   5   6
ATOM      6  C   LIG    1       53.259  60.652  35.299  0.00  0.00    +0.077 C 
ATOM      7  C   LIG    1       52.354  61.875  35.082  0.00  0.00    +0.044 C 
ATOM      8  C   LIG    1       53.319  63.021  34.775  0.00  0.00    +0.150 C 
ATOM     16  N   LIG    1       54.559  62.632  35.437  0.00  0.00    -0.209 NA
ATOM     17  C   LIG    1       54.517  61.264  35.937  0.00  0.00    +0.105 C 
BRANCH   8   9
ATOM      9  C   LIG    1       52.798  64.379  35.205  0.00  0.00    +0.242 C 
ATOM     10  O   LIG    1       52.892  64.719  36.383  0.00  0.00    -0.273 OA
ATOM     11  N   LIG    1       52.295  65.167  34.244  0.00  0.00    -0.268 N 
ATOM     12  C   LIG    1       52.206  64.690  32.857  0.00  0.00    +0.106 C 
ATOM     13  C   LIG    1       51.618  65.756  31.925  0.00  0.00    +0.081 C 
ATOM     14  S   LIG    1       50.846  66.878  32.993  0.00  0.00    -0.117 S 
ATOM     15  C   LIG    1       51.788  66.529  34.454  0.00  0.00    +0.152 C 
ENDBRANCH   8   9
ENDBRANCH   5   6
TORSDOF 4
ENDMDL
