MODEL 7
REMARK VINA RESULT:    -7.591      9.557     12.400
REMARK INTER + INTRA:         -10.064
REMARK INTER:                  -9.438
REMARK INTRA:                  -0.626
REMARK UNBOUND:                -0.698
REMARK  Name = ligand_1
REMARK                            x       y       z     vdW  Elec       q    Type
REMARK                         _______ _______ _______ _____ _____    ______ ____
ROOT
ATOM      2  N   LIG    1       56.999  55.467  33.915  0.00  0.00    -0.305 N 
ATOM      3  C   LIG    1       57.136  56.569  34.862  0.00  0.00    +0.108 C 
ATOM      4  C   LIG    1       56.114  56.388  35.989  0.00  0.00    +0.094 C 
ATOM      5  N   LIG    1       56.235  55.042  36.570  0.00  0.00    -0.270 NA
ATOM     18  C   LIG    1       56.115  53.944  35.620  0.00  0.00    +0.094 C 
ATOM     19  C   LIG    1       57.139  54.125  34.502  0.00  0.00    +0.108 C 
ENDROOT
BRANCH   2   1
ATOM      1  C   LIG    1       57.588  55.667  32.618  0.00  0.00    +0.051 A 
ATOM     20  C   LIG    1       57.043  55.104  31.440  0.00  0.00    +0.031 A 
ATOM     21  C   LIG    1       55.970  54.218  31.479  0.00  0.00    +0.003 A 
ATOM     22  C   LIG    1       55.455  53.675  30.306  0.00  0.00    +0.000 A 
ATOM     23  C   LIG    1       56.006  54.001  29.065  0.00  0.00    +0.002 A 
ATOM     24  C   LIG    1       57.077  54.887  29.007  0.00  0.00    +0.019 A 
ATOM     25  C   LIG    1       57.586  55.429  30.183  0.00  0.00    +0.082 A 
ATOM     26  N   LIG    1       58.631  56.269  30.088  0.00  0.00    -0.241 NA
ATOM     27  C   LIG    1       59.187  56.823  31.186  0.00  0.00    +0.154 A 
ATOM     32  C   LIG    1       58.673  56.549  32.463  0.00  0.00    +0.038 A 
BRANCH  27  28
ATOM     28  C   LIG    1       60.330  57.759  30.903  0.00  0.00    +0.435 C 
ATOM     29  F   LIG    1       60.654  57.659  29.630  0.00  0.00    -0.164 F 
ATOM     30  F   LIG    1       61.389  57.582  31.671  0.00  0.00    -0.164 F 
ATOM     31  F   LIG    1       59.873  58.977  31.101  0.00  0.00    -0.164 F 
ENDBRANCH  27  28
ENDBRANCH   2   1
BRANCH   5   6
ATOM      6  C   LIG    1       55.219  54.855  37.643  0.00  0.00    +0.077 C 
ATOM      7  C   LIG    1       55.797  55.063  39.052  0.00  0.00    +0.044 C 
ATOM      8  C   LIG    1       54.601  55.489  39.902  0.00  0.00    +0.150 C 
ATOM     16  N   LIG    1       53.687  56.110  38.949  0.00  0.00    -0.209 NA
ATOM     17  C   LIG    1       54.107  55.914  37.569  0.00  0.00    +0.105 C 
BRANCH   8   9
ATOM      9  C   LIG    1       54.977  56.391  41.063  0.00  0.00    +0.242 C 
ATOM     10  O   LIG    1       55.444  57.507  40.837  0.00  0.00    -0.273 OA
ATOM     11  N   LIG    1       54.730  55.927  42.296  0.00  0.00    -0.268 N 
ATOM     12  C   LIG    1       54.179  54.579  42.490  0.00  0.00    +0.106 C 
ATOM     13  C   LIG    1       53.960  54.262  43.973  0.00  0.00    +0.081 C 
ATOM     14  S   LIG    1       54.925  55.432  44.807  0.00  0.00    -0.117 S 
ATOM     15  C   LIG    1       54.979  56.669  43.539  0.00  0.00    +0.152 C 
ENDBRANCH   8   9
ENDBRANCH   5   6
TORSDOF 4
ENDMDL
