MODEL 8
REMARK VINA RESULT:    -5.030      6.569      7.831
REMARK INTER + INTRA:          -7.041
REMARK INTER:                  -6.790
REMARK INTRA:                  -0.251
REMARK UNBOUND:                -0.835
REMARK  Name = ligand_1
REMARK                            x       y       z     vdW  Elec       q    Type
REMARK                         _______ _______ _______ _____ _____    ______ ____
ROOT
ATOM      2  N   LIG    1       50.052  60.856  32.441  0.00  0.00    -0.305 N 
ATOM      3  C   LIG    1       50.159  60.482  31.034  0.00  0.00    +0.108 C 
ATOM      4  C   LIG    1       50.586  59.013  30.939  0.00  0.00    +0.094 C 
ATOM      5  N   LIG    1       49.688  58.173  31.745  0.00  0.00    -0.270 NA
ATOM     18  C   LIG    1       49.569  58.558  33.145  0.00  0.00    +0.094 C 
ATOM     19  C   LIG    1       49.139  60.021  33.235  0.00  0.00    +0.108 C 
ENDROOT
BRANCH   2   1
ATOM      1  C   LIG    1       50.047  62.266  32.725  0.00  0.00    +0.051 A 
ATOM     20  C   LIG    1       48.976  63.112  32.355  0.00  0.00    +0.031 A 
ATOM     21  C   LIG    1       47.912  62.654  31.581  0.00  0.00    +0.003 A 
ATOM     22  C   LIG    1       46.873  63.509  31.227  0.00  0.00    +0.000 A 
ATOM     23  C   LIG    1       46.875  64.845  31.632  0.00  0.00    +0.002 A 
ATOM     24  C   LIG    1       47.929  65.319  32.407  0.00  0.00    +0.019 A 
ATOM     25  C   LIG    1       48.964  64.460  32.762  0.00  0.00    +0.082 A 
ATOM     26  N   LIG    1       49.972  64.958  33.498  0.00  0.00    -0.241 NA
ATOM     27  C   LIG    1       51.017  64.189  33.868  0.00  0.00    +0.154 A 
ATOM     32  C   LIG    1       51.070  62.833  33.506  0.00  0.00    +0.038 A 
BRANCH  27  28
ATOM     28  C   LIG    1       52.045  64.893  34.711  0.00  0.00    +0.435 C 
ATOM     29  F   LIG    1       51.992  66.184  34.452  0.00  0.00    -0.164 F 
ATOM     30  F   LIG    1       53.276  64.438  34.572  0.00  0.00    -0.164 F 
ATOM     31  F   LIG    1       51.679  64.725  35.963  0.00  0.00    -0.164 F 
ENDBRANCH  27  28
ENDBRANCH   2   1
BRANCH   5   6
ATOM      6  C   LIG    1       50.123  56.750  31.679  0.00  0.00    +0.077 C 
ATOM      7  C   LIG    1       51.634  56.601  31.444  0.00  0.00    +0.044 C 
ATOM      8  C   LIG    1       51.986  55.241  32.047  0.00  0.00    +0.150 C 
ATOM     16  N   LIG    1       50.973  55.031  33.075  0.00  0.00    -0.209 NA
ATOM     17  C   LIG    1       49.909  56.024  33.017  0.00  0.00    +0.105 C 
BRANCH   8   9
ATOM      9  C   LIG    1       53.409  55.163  32.568  0.00  0.00    +0.242 C 
ATOM     10  O   LIG    1       53.636  55.412  33.752  0.00  0.00    -0.273 OA
ATOM     11  N   LIG    1       54.352  54.775  31.698  0.00  0.00    -0.268 N 
ATOM     12  C   LIG    1       54.010  54.504  30.296  0.00  0.00    +0.106 C 
ATOM     13  C   LIG    1       55.233  54.058  29.487  0.00  0.00    +0.081 C 
ATOM     14  S   LIG    1       56.584  54.551  30.449  0.00  0.00    -0.117 S 
ATOM     15  C   LIG    1       55.773  54.594  32.025  0.00  0.00    +0.152 C 
ENDBRANCH   8   9
ENDBRANCH   5   6
TORSDOF 4
ENDMDL
