MODEL 4
REMARK VINA RESULT:    -7.706      4.583      8.815
REMARK INTER + INTRA:         -10.192
REMARK INTER:                  -9.547
REMARK INTRA:                  -0.645
REMARK UNBOUND:                -0.684
REMARK  Name = ligand_1
REMARK                            x       y       z     vdW  Elec       q    Type
REMARK                         _______ _______ _______ _____ _____    ______ ____
ROOT
ATOM      2  N   LIG    1       50.727  63.044  36.602  0.00  0.00    -0.305 N 
ATOM      3  C   LIG    1       49.409  62.641  36.120  0.00  0.00    +0.108 C 
ATOM      4  C   LIG    1       48.917  61.451  36.951  0.00  0.00    +0.094 C 
ATOM      5  N   LIG    1       48.990  61.773  38.385  0.00  0.00    -0.270 NA
ATOM     18  C   LIG    1       50.303  62.191  38.860  0.00  0.00    +0.094 C 
ATOM     19  C   LIG    1       50.787  63.379  38.032  0.00  0.00    +0.108 C 
ENDROOT
BRANCH   2   1
ATOM      1  C   LIG    1       51.503  63.868  35.713  0.00  0.00    +0.051 A 
ATOM     20  C   LIG    1       52.915  63.801  35.653  0.00  0.00    +0.031 A 
ATOM     21  C   LIG    1       53.651  63.019  36.540  0.00  0.00    +0.003 A 
ATOM     22  C   LIG    1       55.040  62.975  36.463  0.00  0.00    +0.000 A 
ATOM     23  C   LIG    1       55.726  63.716  35.499  0.00  0.00    +0.002 A 
ATOM     24  C   LIG    1       55.007  64.501  34.604  0.00  0.00    +0.019 A 
ATOM     25  C   LIG    1       53.618  64.539  34.683  0.00  0.00    +0.082 A 
ATOM     26  N   LIG    1       52.959  65.321  33.811  0.00  0.00    -0.241 NA
ATOM     27  C   LIG    1       51.614  65.420  33.837  0.00  0.00    +0.154 A 
ATOM     32  C   LIG    1       50.861  64.690  34.771  0.00  0.00    +0.038 A 
BRANCH  27  28
ATOM     28  C   LIG    1       51.032  66.315  32.777  0.00  0.00    +0.435 C 
ATOM     29  F   LIG    1       51.672  66.101  31.644  0.00  0.00    -0.164 F 
ATOM     30  F   LIG    1       51.033  67.599  33.080  0.00  0.00    -0.164 F 
ATOM     31  F   LIG    1       49.786  65.929  32.606  0.00  0.00    -0.164 F 
ENDBRANCH  27  28
ENDBRANCH   2   1
BRANCH   5   6
ATOM      6  C   LIG    1       48.543  60.605  39.194  0.00  0.00    +0.077 C 
ATOM      7  C   LIG    1       49.546  59.442  39.165  0.00  0.00    +0.044 C 
ATOM      8  C   LIG    1       49.301  58.686  40.471  0.00  0.00    +0.150 C 
ATOM     16  N   LIG    1       48.765  59.698  41.375  0.00  0.00    -0.209 NA
ATOM     17  C   LIG    1       48.455  60.946  40.691  0.00  0.00    +0.105 C 
BRANCH   8   9
ATOM      9  C   LIG    1       50.537  57.986  41.003  0.00  0.00    +0.242 C 
ATOM     10  O   LIG    1       51.635  58.533  40.901  0.00  0.00    -0.273 OA
ATOM     11  N   LIG    1       50.351  56.804  41.608  0.00  0.00    -0.268 N 
ATOM     12  C   LIG    1       49.011  56.207  41.685  0.00  0.00    +0.106 C 
ATOM     13  C   LIG    1       49.027  54.869  42.433  0.00  0.00    +0.081 C 
ATOM     14  S   LIG    1       50.691  54.394  42.424  0.00  0.00    -0.117 S 
ATOM     15  C   LIG    1       51.414  56.001  42.227  0.00  0.00    +0.152 C 
ENDBRANCH   8   9
ENDBRANCH   5   6
TORSDOF 4
ENDMDL
