MODEL 5
REMARK VINA RESULT:    -7.537      5.263      6.995
REMARK INTER + INTRA:         -10.001
REMARK INTER:                  -9.434
REMARK INTRA:                  -0.567
REMARK UNBOUND:                -0.702
REMARK  Name = ligand_1
REMARK                            x       y       z     vdW  Elec       q    Type
REMARK                         _______ _______ _______ _____ _____    ______ ____
ROOT
ATOM      2  N   LIG    1       53.564  57.975  38.694  0.00  0.00    -0.305 N 
ATOM      3  C   LIG    1       54.519  59.026  38.354  0.00  0.00    +0.108 C 
ATOM      4  C   LIG    1       54.042  59.742  37.086  0.00  0.00    +0.094 C 
ATOM      5  N   LIG    1       52.650  60.188  37.251  0.00  0.00    -0.270 NA
ATOM     18  C   LIG    1       51.701  59.140  37.607  0.00  0.00    +0.094 C 
ATOM     19  C   LIG    1       52.178  58.433  38.874  0.00  0.00    +0.108 C 
ENDROOT
BRANCH   2   1
ATOM      1  C   LIG    1       54.031  56.962  39.603  0.00  0.00    +0.051 A 
ATOM     20  C   LIG    1       54.832  55.874  39.182  0.00  0.00    +0.031 A 
ATOM     21  C   LIG    1       55.116  55.649  37.838  0.00  0.00    +0.003 A 
ATOM     22  C   LIG    1       55.902  54.568  37.451  0.00  0.00    +0.000 A 
ATOM     23  C   LIG    1       56.419  53.683  38.399  0.00  0.00    +0.002 A 
ATOM     24  C   LIG    1       56.147  53.895  39.747  0.00  0.00    +0.019 A 
ATOM     25  C   LIG    1       55.363  54.978  40.129  0.00  0.00    +0.082 A 
ATOM     26  N   LIG    1       55.109  55.141  41.439  0.00  0.00    -0.241 NA
ATOM     27  C   LIG    1       54.346  56.161  41.883  0.00  0.00    +0.154 A 
ATOM     32  C   LIG    1       53.807  57.095  40.984  0.00  0.00    +0.038 A 
BRANCH  27  28
ATOM     28  C   LIG    1       54.182  56.214  43.378  0.00  0.00    +0.435 C 
ATOM     29  F   LIG    1       54.298  54.993  43.860  0.00  0.00    -0.164 F 
ATOM     30  F   LIG    1       53.061  56.775  43.789  0.00  0.00    -0.164 F 
ATOM     31  F   LIG    1       55.193  56.919  43.839  0.00  0.00    -0.164 F 
ENDBRANCH  27  28
ENDBRANCH   2   1
BRANCH   5   6
ATOM      6  C   LIG    1       52.176  60.855  36.006  0.00  0.00    +0.077 C 
ATOM      7  C   LIG    1       51.552  62.233  36.271  0.00  0.00    +0.044 C 
ATOM      8  C   LIG    1       51.744  63.003  34.965  0.00  0.00    +0.150 C 
ATOM     16  N   LIG    1       52.920  62.390  34.357  0.00  0.00    -0.209 NA
ATOM     17  C   LIG    1       53.338  61.181  35.055  0.00  0.00    +0.105 C 
BRANCH   8   9
ATOM      9  C   LIG    1       51.871  64.502  35.162  0.00  0.00    +0.242 C 
ATOM     10  O   LIG    1       52.230  64.942  36.253  0.00  0.00    -0.273 OA
ATOM     11  N   LIG    1       51.623  65.276  34.096  0.00  0.00    -0.268 N 
ATOM     12  C   LIG    1       51.189  64.681  32.825  0.00  0.00    +0.106 C 
ATOM     13  C   LIG    1       50.981  65.744  31.741  0.00  0.00    +0.081 C 
ATOM     14  S   LIG    1       50.858  67.231  32.618  0.00  0.00    -0.117 S 
ATOM     15  C   LIG    1       51.740  66.740  34.076  0.00  0.00    +0.152 C 
ENDBRANCH   8   9
ENDBRANCH   5   6
TORSDOF 4
ENDMDL
