MODEL 3
REMARK VINA RESULT:    -7.724      4.966      9.275
REMARK INTER + INTRA:         -10.228
REMARK INTER:                  -9.899
REMARK INTRA:                  -0.329
REMARK UNBOUND:                -0.698
REMARK  Name = ligand_1
REMARK                            x       y       z     vdW  Elec       q    Type
REMARK                         _______ _______ _______ _____ _____    ______ ____
ROOT
ATOM      2  N   LIG    1       51.032  62.356  37.129  0.00  0.00    -0.305 N 
ATOM      3  C   LIG    1       50.208  61.330  36.496  0.00  0.00    +0.108 C 
ATOM      4  C   LIG    1       49.757  60.325  37.562  0.00  0.00    +0.094 C 
ATOM      5  N   LIG    1       49.127  61.031  38.687  0.00  0.00    -0.270 NA
ATOM     18  C   LIG    1       49.944  62.066  39.306  0.00  0.00    +0.094 C 
ATOM     19  C   LIG    1       50.386  63.068  38.242  0.00  0.00    +0.108 C 
ENDROOT
BRANCH   2   1
ATOM      1  C   LIG    1       51.851  63.145  36.248  0.00  0.00    +0.051 A 
ATOM     20  C   LIG    1       51.313  63.890  35.173  0.00  0.00    +0.031 A 
ATOM     21  C   LIG    1       49.967  63.809  34.825  0.00  0.00    +0.003 A 
ATOM     22  C   LIG    1       49.464  64.549  33.759  0.00  0.00    +0.000 A 
ATOM     23  C   LIG    1       50.296  65.385  33.013  0.00  0.00    +0.002 A 
ATOM     24  C   LIG    1       51.643  65.480  33.348  0.00  0.00    +0.019 A 
ATOM     25  C   LIG    1       52.141  64.740  34.416  0.00  0.00    +0.082 A 
ATOM     26  N   LIG    1       53.450  64.847  34.699  0.00  0.00    -0.241 NA
ATOM     27  C   LIG    1       54.007  64.149  35.711  0.00  0.00    +0.154 A 
ATOM     32  C   LIG    1       53.223  63.301  36.511  0.00  0.00    +0.038 A 
BRANCH  27  28
ATOM     28  C   LIG    1       55.476  64.402  35.912  0.00  0.00    +0.435 C 
ATOM     29  F   LIG    1       55.791  65.544  35.334  0.00  0.00    -0.164 F 
ATOM     30  F   LIG    1       56.264  63.431  35.491  0.00  0.00    -0.164 F 
ATOM     31  F   LIG    1       55.655  64.552  37.207  0.00  0.00    -0.164 F 
ENDBRANCH  27  28
ENDBRANCH   2   1
BRANCH   5   6
ATOM      6  C   LIG    1       48.718  60.057  39.738  0.00  0.00    +0.077 C 
ATOM      7  C   LIG    1       49.521  58.748  39.678  0.00  0.00    +0.044 C 
ATOM      8  C   LIG    1       49.477  58.202  41.105  0.00  0.00    +0.150 C 
ATOM     16  N   LIG    1       49.304  59.387  41.937  0.00  0.00    -0.209 NA
ATOM     17  C   LIG    1       49.020  60.581  41.151  0.00  0.00    +0.105 C 
BRANCH   8   9
ATOM      9  C   LIG    1       50.694  57.373  41.471  0.00  0.00    +0.242 C 
ATOM     10  O   LIG    1       51.819  57.846  41.313  0.00  0.00    -0.273 OA
ATOM     11  N   LIG    1       50.466  56.162  41.999  0.00  0.00    -0.268 N 
ATOM     12  C   LIG    1       49.095  55.658  42.149  0.00  0.00    +0.106 C 
ATOM     13  C   LIG    1       49.067  54.266  42.789  0.00  0.00    +0.081 C 
ATOM     14  S   LIG    1       50.682  53.675  42.597  0.00  0.00    -0.117 S 
ATOM     15  C   LIG    1       51.510  55.236  42.458  0.00  0.00    +0.152 C 
ENDBRANCH   8   9
ENDBRANCH   5   6
TORSDOF 4
ENDMDL
