MODEL 2
REMARK VINA RESULT:    -8.159      5.494      9.877
REMARK INTER + INTRA:         -10.754
REMARK INTER:                  -9.915
REMARK INTRA:                  -0.839
REMARK UNBOUND:                -0.687
REMARK  Name = ligand_1
REMARK                            x       y       z     vdW  Elec       q    Type
REMARK                         _______ _______ _______ _____ _____    ______ ____
ROOT
ATOM      2  N   LIG    1       51.231  62.643  37.426  0.00  0.00    -0.305 N 
ATOM      3  C   LIG    1       50.859  63.368  38.637  0.00  0.00    +0.108 C 
ATOM      4  C   LIG    1       49.668  62.662  39.295  0.00  0.00    +0.094 C 
ATOM      5  N   LIG    1       49.970  61.235  39.485  0.00  0.00    -0.270 NA
ATOM     18  C   LIG    1       50.358  60.517  38.278  0.00  0.00    +0.094 C 
ATOM     19  C   LIG    1       51.547  61.222  37.628  0.00  0.00    +0.108 C 
ENDROOT
BRANCH   2   1
ATOM      1  C   LIG    1       52.052  63.358  36.485  0.00  0.00    +0.051 A 
ATOM     20  C   LIG    1       51.512  64.033  35.365  0.00  0.00    +0.031 A 
ATOM     21  C   LIG    1       50.162  63.945  35.036  0.00  0.00    +0.003 A 
ATOM     22  C   LIG    1       49.657  64.615  33.925  0.00  0.00    +0.000 A 
ATOM     23  C   LIG    1       50.492  65.387  33.115  0.00  0.00    +0.002 A 
ATOM     24  C   LIG    1       51.843  65.488  33.431  0.00  0.00    +0.019 A 
ATOM     25  C   LIG    1       52.343  64.818  34.543  0.00  0.00    +0.082 A 
ATOM     26  N   LIG    1       53.656  64.928  34.808  0.00  0.00    -0.241 NA
ATOM     27  C   LIG    1       54.214  64.296  35.861  0.00  0.00    +0.154 A 
ATOM     32  C   LIG    1       53.428  63.516  36.724  0.00  0.00    +0.038 A 
BRANCH  27  28
ATOM     28  C   LIG    1       55.688  64.544  36.030  0.00  0.00    +0.435 C 
ATOM     29  F   LIG    1       56.012  65.635  35.366  0.00  0.00    -0.164 F 
ATOM     30  F   LIG    1       56.460  63.534  35.677  0.00  0.00    -0.164 F 
ATOM     31  F   LIG    1       55.880  64.788  37.309  0.00  0.00    -0.164 F 
ENDBRANCH  27  28
ENDBRANCH   2   1
BRANCH   5   6
ATOM      6  C   LIG    1       48.801  60.542  40.094  0.00  0.00    +0.077 C 
ATOM      7  C   LIG    1       48.542  59.159  39.478  0.00  0.00    +0.044 C 
ATOM      8  C   LIG    1       47.829  58.372  40.578  0.00  0.00    +0.150 C 
ATOM     16  N   LIG    1       48.286  58.993  41.816  0.00  0.00    -0.209 NA
ATOM     17  C   LIG    1       49.037  60.219  41.578  0.00  0.00    +0.105 C 
BRANCH   8   9
ATOM      9  C   LIG    1       48.087  56.878  40.514  0.00  0.00    +0.242 C 
ATOM     10  O   LIG    1       49.137  56.424  40.968  0.00  0.00    -0.273 OA
ATOM     11  N   LIG    1       47.112  56.117  39.997  0.00  0.00    -0.268 N 
ATOM     12  C   LIG    1       45.888  56.730  39.465  0.00  0.00    +0.106 C 
ATOM     13  C   LIG    1       44.905  55.677  38.942  0.00  0.00    +0.081 C 
ATOM     14  S   LIG    1       45.871  54.255  38.739  0.00  0.00    -0.117 S 
ATOM     15  C   LIG    1       47.155  54.652  39.895  0.00  0.00    +0.152 C 
ENDBRANCH   8   9
ENDBRANCH   5   6
TORSDOF 4
ENDMDL
