MODEL 7
REMARK VINA RESULT:    -7.010      5.046      8.826
REMARK INTER + INTRA:          -9.479
REMARK INTER:                  -8.548
REMARK INTRA:                  -0.931
REMARK UNBOUND:                -0.829
REMARK  Name = ligand_1
REMARK                            x       y       z     vdW  Elec       q    Type
REMARK                         _______ _______ _______ _____ _____    ______ ____
ROOT
ATOM      2  N   LIG    1       51.927  59.407  37.795  0.00  0.00    -0.305 N 
ATOM      3  C   LIG    1       51.774  58.402  36.748  0.00  0.00    +0.108 C 
ATOM      4  C   LIG    1       51.453  59.105  35.424  0.00  0.00    +0.094 C 
ATOM      5  N   LIG    1       52.453  60.148  35.152  0.00  0.00    -0.270 NA
ATOM     18  C   LIG    1       52.616  61.141  36.206  0.00  0.00    +0.094 C 
ATOM     19  C   LIG    1       52.941  60.436  37.521  0.00  0.00    +0.108 C 
ENDROOT
BRANCH   2   1
ATOM      1  C   LIG    1       51.841  58.931  39.150  0.00  0.00    +0.051 A 
ATOM     20  C   LIG    1       50.796  59.309  40.024  0.00  0.00    +0.031 A 
ATOM     21  C   LIG    1       49.849  60.265  39.665  0.00  0.00    +0.003 A 
ATOM     22  C   LIG    1       48.832  60.622  40.546  0.00  0.00    +0.000 A 
ATOM     23  C   LIG    1       48.742  60.036  41.810  0.00  0.00    +0.002 A 
ATOM     24  C   LIG    1       49.678  59.077  42.184  0.00  0.00    +0.019 A 
ATOM     25  C   LIG    1       50.691  58.721  41.299  0.00  0.00    +0.082 A 
ATOM     26  N   LIG    1       51.586  57.803  41.702  0.00  0.00    -0.241 NA
ATOM     27  C   LIG    1       52.603  57.418  40.903  0.00  0.00    +0.154 A 
ATOM     32  C   LIG    1       52.743  57.958  39.615  0.00  0.00    +0.038 A 
BRANCH  27  28
ATOM     28  C   LIG    1       53.498  56.364  41.495  0.00  0.00    +0.435 C 
ATOM     29  F   LIG    1       54.717  56.530  41.023  0.00  0.00    -0.164 F 
ATOM     30  F   LIG    1       53.087  55.124  41.307  0.00  0.00    -0.164 F 
ATOM     31  F   LIG    1       53.541  56.595  42.790  0.00  0.00    -0.164 F 
ENDBRANCH  27  28
ENDBRANCH   2   1
BRANCH   5   6
ATOM      6  C   LIG    1       52.123  60.854  33.882  0.00  0.00    +0.077 C 
ATOM      7  C   LIG    1       50.718  61.476  33.896  0.00  0.00    +0.044 C 
ATOM      8  C   LIG    1       50.800  62.639  32.907  0.00  0.00    +0.150 C 
ATOM     16  N   LIG    1       52.208  63.020  32.918  0.00  0.00    -0.209 NA
ATOM     17  C   LIG    1       53.035  62.069  33.649  0.00  0.00    +0.105 C 
BRANCH   8   9
ATOM      9  C   LIG    1       49.857  63.780  33.239  0.00  0.00    +0.242 C 
ATOM     10  O   LIG    1       50.189  64.615  34.079  0.00  0.00    -0.273 OA
ATOM     11  N   LIG    1       48.710  63.838  32.548  0.00  0.00    -0.268 N 
ATOM     12  C   LIG    1       48.375  62.799  31.565  0.00  0.00    +0.106 C 
ATOM     13  C   LIG    1       47.031  63.072  30.883  0.00  0.00    +0.081 C 
ATOM     14  S   LIG    1       46.249  64.214  31.922  0.00  0.00    -0.117 S 
ATOM     15  C   LIG    1       47.695  64.891  32.692  0.00  0.00    +0.152 C 
ENDBRANCH   8   9
ENDBRANCH   5   6
TORSDOF 4
ENDMDL
