MODEL 6
REMARK VINA RESULT:    -7.069      5.011      6.606
REMARK INTER + INTRA:          -9.429
REMARK INTER:                  -8.818
REMARK INTRA:                  -0.611
REMARK UNBOUND:                -0.707
REMARK  Name = ligand_1
REMARK                            x       y       z     vdW  Elec       q    Type
REMARK                         _______ _______ _______ _____ _____    ______ ____
ROOT
ATOM      2  N   LIG    1       50.855  58.560  40.426  0.00  0.00    -0.305 N 
ATOM      3  C   LIG    1       51.890  58.969  39.482  0.00  0.00    +0.108 C 
ATOM      4  C   LIG    1       51.250  59.813  38.374  0.00  0.00    +0.094 C 
ATOM      5  N   LIG    1       50.469  60.911  38.964  0.00  0.00    -0.270 NA
ATOM     18  C   LIG    1       49.447  60.502  39.919  0.00  0.00    +0.094 C 
ATOM     19  C   LIG    1       50.090  59.666  41.023  0.00  0.00    +0.108 C 
ENDROOT
BRANCH   2   1
ATOM      1  C   LIG    1       51.186  57.462  41.295  0.00  0.00    +0.051 A 
ATOM     20  C   LIG    1       50.358  56.323  41.430  0.00  0.00    +0.031 A 
ATOM     21  C   LIG    1       49.108  56.249  40.821  0.00  0.00    +0.003 A 
ATOM     22  C   LIG    1       48.311  55.118  40.973  0.00  0.00    +0.000 A 
ATOM     23  C   LIG    1       48.743  54.036  41.743  0.00  0.00    +0.002 A 
ATOM     24  C   LIG    1       49.991  54.093  42.356  0.00  0.00    +0.019 A 
ATOM     25  C   LIG    1       50.785  55.224  42.199  0.00  0.00    +0.082 A 
ATOM     26  N   LIG    1       51.977  55.248  42.819  0.00  0.00    -0.241 NA
ATOM     27  C   LIG    1       52.795  56.317  42.723  0.00  0.00    +0.154 A 
ATOM     32  C   LIG    1       52.427  57.432  41.953  0.00  0.00    +0.038 A 
BRANCH  27  28
ATOM     28  C   LIG    1       54.102  56.172  43.455  0.00  0.00    +0.435 C 
ATOM     29  F   LIG    1       53.918  56.502  44.718  0.00  0.00    -0.164 F 
ATOM     30  F   LIG    1       55.103  56.854  42.933  0.00  0.00    -0.164 F 
ATOM     31  F   LIG    1       54.407  54.892  43.422  0.00  0.00    -0.164 F 
ENDBRANCH  27  28
ENDBRANCH   2   1
BRANCH   5   6
ATOM      6  C   LIG    1       49.820  61.711  37.888  0.00  0.00    +0.077 C 
ATOM      7  C   LIG    1       50.658  62.927  37.463  0.00  0.00    +0.044 C 
ATOM      8  C   LIG    1       50.234  63.204  36.020  0.00  0.00    +0.150 C 
ATOM     16  N   LIG    1       49.785  61.908  35.524  0.00  0.00    -0.209 NA
ATOM     17  C   LIG    1       49.687  60.912  36.582  0.00  0.00    +0.105 C 
BRANCH   8   9
ATOM      9  C   LIG    1       51.331  63.832  35.181  0.00  0.00    +0.242 C 
ATOM     10  O   LIG    1       52.504  63.717  35.532  0.00  0.00    -0.273 OA
ATOM     11  N   LIG    1       50.951  64.451  34.054  0.00  0.00    -0.268 N 
ATOM     12  C   LIG    1       49.529  64.557  33.702  0.00  0.00    +0.106 C 
ATOM     13  C   LIG    1       49.326  65.285  32.369  0.00  0.00    +0.081 C 
ATOM     14  S   LIG    1       50.822  66.111  32.100  0.00  0.00    -0.117 S 
ATOM     15  C   LIG    1       51.867  65.074  33.089  0.00  0.00    +0.152 C 
ENDBRANCH   8   9
ENDBRANCH   5   6
TORSDOF 4
ENDMDL
