MODEL 4
REMARK VINA RESULT:    -7.658      4.645      8.856
REMARK INTER + INTRA:         -10.151
REMARK INTER:                  -9.596
REMARK INTRA:                  -0.554
REMARK UNBOUND:                -0.702
REMARK  Name = ligand_1
REMARK                            x       y       z     vdW  Elec       q    Type
REMARK                         _______ _______ _______ _____ _____    ______ ____
ROOT
ATOM      2  N   LIG    1       50.604  63.019  36.528  0.00  0.00    -0.305 N 
ATOM      3  C   LIG    1       49.254  62.676  36.090  0.00  0.00    +0.108 C 
ATOM      4  C   LIG    1       48.758  61.472  36.898  0.00  0.00    +0.094 C 
ATOM      5  N   LIG    1       48.903  61.736  38.337  0.00  0.00    -0.270 NA
ATOM     18  C   LIG    1       50.248  62.095  38.770  0.00  0.00    +0.094 C 
ATOM     19  C   LIG    1       50.736  63.298  37.965  0.00  0.00    +0.108 C 
ENDROOT
BRANCH   2   1
ATOM      1  C   LIG    1       51.369  63.851  35.637  0.00  0.00    +0.051 A 
ATOM     20  C   LIG    1       52.782  63.823  35.596  0.00  0.00    +0.031 A 
ATOM     21  C   LIG    1       53.528  63.075  36.504  0.00  0.00    +0.003 A 
ATOM     22  C   LIG    1       54.918  63.069  36.444  0.00  0.00    +0.000 A 
ATOM     23  C   LIG    1       55.597  63.815  35.479  0.00  0.00    +0.002 A 
ATOM     24  C   LIG    1       54.867  64.566  34.563  0.00  0.00    +0.019 A 
ATOM     25  C   LIG    1       53.478  64.567  34.624  0.00  0.00    +0.082 A 
ATOM     26  N   LIG    1       52.808  65.317  33.732  0.00  0.00    -0.241 NA
ATOM     27  C   LIG    1       51.461  65.378  33.739  0.00  0.00    +0.154 A 
ATOM     32  C   LIG    1       50.716  64.641  34.674  0.00  0.00    +0.038 A 
BRANCH  27  28
ATOM     28  C   LIG    1       50.868  66.241  32.658  0.00  0.00    +0.435 C 
ATOM     29  F   LIG    1       50.946  67.502  33.034  0.00  0.00    -0.164 F 
ATOM     30  F   LIG    1       49.631  65.928  32.321  0.00  0.00    -0.164 F 
ATOM     31  F   LIG    1       51.637  66.095  31.601  0.00  0.00    -0.164 F 
ENDBRANCH  27  28
ENDBRANCH   2   1
BRANCH   5   6
ATOM      6  C   LIG    1       48.452  60.553  39.122  0.00  0.00    +0.077 C 
ATOM      7  C   LIG    1       49.483  59.415  39.127  0.00  0.00    +0.044 C 
ATOM      8  C   LIG    1       49.205  58.645  40.418  0.00  0.00    +0.150 C 
ATOM     16  N   LIG    1       48.609  59.639  41.305  0.00  0.00    -0.209 NA
ATOM     17  C   LIG    1       48.297  60.883  40.615  0.00  0.00    +0.105 C 
BRANCH   8   9
ATOM      9  C   LIG    1       50.436  57.971  40.996  0.00  0.00    +0.242 C 
ATOM     10  O   LIG    1       51.525  58.541  40.931  0.00  0.00    -0.273 OA
ATOM     11  N   LIG    1       50.252  56.788  41.597  0.00  0.00    -0.268 N 
ATOM     12  C   LIG    1       48.923  56.163  41.628  0.00  0.00    +0.106 C 
ATOM     13  C   LIG    1       48.939  54.828  42.379  0.00  0.00    +0.081 C 
ATOM     14  S   LIG    1       50.611  54.387  42.431  0.00  0.00    -0.117 S 
ATOM     15  C   LIG    1       51.308  56.008  42.256  0.00  0.00    +0.152 C 
ENDBRANCH   8   9
ENDBRANCH   5   6
TORSDOF 4
ENDMDL
