MODEL 9
REMARK VINA RESULT:    -7.035      5.625      7.230
REMARK INTER + INTRA:          -9.379
REMARK INTER:                  -8.548
REMARK INTRA:                  -0.831
REMARK UNBOUND:                -0.698
REMARK  Name = ligand_1
REMARK                            x       y       z     vdW  Elec       q    Type
REMARK                         _______ _______ _______ _____ _____    ______ ____
ROOT
ATOM      2  N   LIG    1       52.456  58.087  38.698  0.00  0.00    -0.305 N 
ATOM      3  C   LIG    1       51.950  57.193  37.660  0.00  0.00    +0.108 C 
ATOM      4  C   LIG    1       53.128  56.443  37.030  0.00  0.00    +0.094 C 
ATOM      5  N   LIG    1       53.933  55.796  38.078  0.00  0.00    -0.270 NA
ATOM     18  C   LIG    1       54.423  56.687  39.122  0.00  0.00    +0.094 C 
ATOM     19  C   LIG    1       53.245  57.429  39.750  0.00  0.00    +0.108 C 
ENDROOT
BRANCH   2   1
ATOM      1  C   LIG    1       51.568  59.137  39.120  0.00  0.00    +0.051 A 
ATOM     20  C   LIG    1       51.447  60.358  38.417  0.00  0.00    +0.031 A 
ATOM     21  C   LIG    1       52.272  60.670  37.340  0.00  0.00    +0.003 A 
ATOM     22  C   LIG    1       52.135  61.881  36.668  0.00  0.00    +0.000 A 
ATOM     23  C   LIG    1       51.173  62.813  37.062  0.00  0.00    +0.002 A 
ATOM     24  C   LIG    1       50.338  62.517  38.135  0.00  0.00    +0.019 A 
ATOM     25  C   LIG    1       50.477  61.304  38.802  0.00  0.00    +0.082 A 
ATOM     26  N   LIG    1       49.663  61.060  39.843  0.00  0.00    -0.241 NA
ATOM     27  C   LIG    1       49.749  59.912  40.546  0.00  0.00    +0.154 A 
ATOM     32  C   LIG    1       50.685  58.926  40.193  0.00  0.00    +0.038 A 
BRANCH  27  28
ATOM     28  C   LIG    1       48.748  59.786  41.662  0.00  0.00    +0.435 C 
ATOM     29  F   LIG    1       49.380  59.907  42.812  0.00  0.00    -0.164 F 
ATOM     30  F   LIG    1       48.032  58.678  41.636  0.00  0.00    -0.164 F 
ATOM     31  F   LIG    1       47.932  60.812  41.549  0.00  0.00    -0.164 F 
ENDBRANCH  27  28
ENDBRANCH   2   1
BRANCH   5   6
ATOM      6  C   LIG    1       55.097  55.094  37.468  0.00  0.00    +0.077 C 
ATOM      7  C   LIG    1       55.254  55.395  35.969  0.00  0.00    +0.044 C 
ATOM      8  C   LIG    1       56.742  55.189  35.687  0.00  0.00    +0.150 C 
ATOM     16  N   LIG    1       57.389  55.448  36.969  0.00  0.00    -0.209 NA
ATOM     17  C   LIG    1       56.431  55.580  38.058  0.00  0.00    +0.105 C 
BRANCH   8   9
ATOM      9  C   LIG    1       57.266  56.051  34.554  0.00  0.00    +0.242 C 
ATOM     10  O   LIG    1       57.656  57.194  34.793  0.00  0.00    -0.273 OA
ATOM     11  N   LIG    1       57.317  55.489  33.339  0.00  0.00    -0.268 N 
ATOM     12  C   LIG    1       56.825  54.121  33.126  0.00  0.00    +0.106 C 
ATOM     13  C   LIG    1       56.995  53.675  31.670  0.00  0.00    +0.081 C 
ATOM     14  S   LIG    1       57.229  55.150  30.795  0.00  0.00    -0.117 S 
ATOM     15  C   LIG    1       57.836  56.145  32.131  0.00  0.00    +0.152 C 
ENDBRANCH   8   9
ENDBRANCH   5   6
TORSDOF 4
ENDMDL
