MODEL 1
REMARK VINA RESULT:    -8.489      0.000      0.000
REMARK INTER + INTRA:         -11.183
REMARK INTER:                 -10.474
REMARK INTRA:                  -0.709
REMARK UNBOUND:                -0.709
REMARK  Name = ligand_1
REMARK                            x       y       z     vdW  Elec       q    Type
REMARK                         _______ _______ _______ _____ _____    ______ ____
ROOT
ATOM      2  N   LIG    1       50.193  61.894  38.292  0.00  0.00    -0.305 N 
ATOM      3  C   LIG    1       50.375  63.247  38.808  0.00  0.00    +0.108 C 
ATOM      4  C   LIG    1       51.603  63.874  38.140  0.00  0.00    +0.094 C 
ATOM      5  N   LIG    1       51.491  63.770  36.677  0.00  0.00    -0.270 NA
ATOM     18  C   LIG    1       51.292  62.421  36.165  0.00  0.00    +0.094 C 
ATOM     19  C   LIG    1       50.064  61.801  36.830  0.00  0.00    +0.108 C 
ENDROOT
BRANCH   2   1
ATOM      1  C   LIG    1       49.348  61.026  39.069  0.00  0.00    +0.051 A 
ATOM     20  C   LIG    1       49.861  59.953  39.836  0.00  0.00    +0.031 A 
ATOM     21  C   LIG    1       51.205  59.594  39.788  0.00  0.00    +0.003 A 
ATOM     22  C   LIG    1       51.683  58.531  40.549  0.00  0.00    +0.000 A 
ATOM     23  C   LIG    1       50.826  57.799  41.372  0.00  0.00    +0.002 A 
ATOM     24  C   LIG    1       49.480  58.145  41.434  0.00  0.00    +0.019 A 
ATOM     25  C   LIG    1       49.008  59.210  40.673  0.00  0.00    +0.082 A 
ATOM     26  N   LIG    1       47.699  59.505  40.747  0.00  0.00    -0.241 NA
ATOM     27  C   LIG    1       47.166  60.515  40.029  0.00  0.00    +0.154 A 
ATOM     32  C   LIG    1       47.975  61.301  39.193  0.00  0.00    +0.038 A 
BRANCH  27  28
ATOM     28  C   LIG    1       45.693  60.729  40.247  0.00  0.00    +0.435 C 
ATOM     29  F   LIG    1       45.274  59.883  41.167  0.00  0.00    -0.164 F 
ATOM     30  F   LIG    1       44.957  60.637  39.156  0.00  0.00    -0.164 F 
ATOM     31  F   LIG    1       45.561  61.943  40.737  0.00  0.00    -0.164 F 
ENDBRANCH  27  28
ENDBRANCH   2   1
BRANCH   5   6
ATOM      6  C   LIG    1       52.700  64.351  36.029  0.00  0.00    +0.077 C 
ATOM      7  C   LIG    1       53.973  64.161  36.868  0.00  0.00    +0.044 C 
ATOM      8  C   LIG    1       55.114  64.178  35.850  0.00  0.00    +0.150 C 
ATOM     16  N   LIG    1       54.494  63.721  34.611  0.00  0.00    -0.209 NA
ATOM     17  C   LIG    1       53.044  63.632  34.715  0.00  0.00    +0.105 C 
BRANCH   8   9
ATOM      9  C   LIG    1       56.313  63.351  36.275  0.00  0.00    +0.242 C 
ATOM     10  O   LIG    1       56.487  62.238  35.779  0.00  0.00    -0.273 OA
ATOM     11  N   LIG    1       57.156  63.913  37.151  0.00  0.00    -0.268 N 
ATOM     12  C   LIG    1       56.878  65.243  37.709  0.00  0.00    +0.106 C 
ATOM     13  C   LIG    1       57.980  65.697  38.673  0.00  0.00    +0.081 C 
ATOM     14  S   LIG    1       58.820  64.240  39.079  0.00  0.00    -0.117 S 
ATOM     15  C   LIG    1       58.393  63.291  37.643  0.00  0.00    +0.152 C 
ENDBRANCH   8   9
ENDBRANCH   5   6
TORSDOF 4
ENDMDL
