MODEL 9
REMARK VINA RESULT:    -7.234      4.472      7.889
REMARK INTER + INTRA:          -9.612
REMARK INTER:                  -8.738
REMARK INTRA:                  -0.874
REMARK UNBOUND:                -0.687
REMARK  Name = ligand_1
REMARK                            x       y       z     vdW  Elec       q    Type
REMARK                         _______ _______ _______ _____ _____    ______ ____
ROOT
ATOM      2  N   LIG    1       49.226  61.969  36.507  0.00  0.00    -0.305 N 
ATOM      3  C   LIG    1       49.056  60.602  36.025  0.00  0.00    +0.108 C 
ATOM      4  C   LIG    1       49.463  59.627  37.136  0.00  0.00    +0.094 C 
ATOM      5  N   LIG    1       48.743  59.950  38.378  0.00  0.00    -0.270 NA
ATOM     18  C   LIG    1       48.901  61.320  38.848  0.00  0.00    +0.094 C 
ATOM     19  C   LIG    1       48.490  62.287  37.740  0.00  0.00    +0.108 C 
ENDROOT
BRANCH   2   1
ATOM      1  C   LIG    1       49.271  62.997  35.500  0.00  0.00    +0.051 A 
ATOM     20  C   LIG    1       50.410  63.809  35.294  0.00  0.00    +0.031 A 
ATOM     21  C   LIG    1       51.517  63.748  36.136  0.00  0.00    +0.003 A 
ATOM     22  C   LIG    1       52.624  64.563  35.913  0.00  0.00    +0.000 A 
ATOM     23  C   LIG    1       52.646  65.462  34.846  0.00  0.00    +0.002 A 
ATOM     24  C   LIG    1       51.550  65.535  33.994  0.00  0.00    +0.019 A 
ATOM     25  C   LIG    1       50.447  64.717  34.218  0.00  0.00    +0.082 A 
ATOM     26  N   LIG    1       49.400  64.826  33.383  0.00  0.00    -0.241 NA
ATOM     27  C   LIG    1       48.291  64.076  33.546  0.00  0.00    +0.154 A 
ATOM     32  C   LIG    1       48.209  63.141  34.591  0.00  0.00    +0.038 A 
BRANCH  27  28
ATOM     28  C   LIG    1       47.224  64.302  32.510  0.00  0.00    +0.435 C 
ATOM     29  F   LIG    1       46.999  63.167  31.879  0.00  0.00    -0.164 F 
ATOM     30  F   LIG    1       47.487  65.270  31.653  0.00  0.00    -0.164 F 
ATOM     31  F   LIG    1       46.127  64.614  33.167  0.00  0.00    -0.164 F 
ENDBRANCH  27  28
ENDBRANCH   2   1
BRANCH   5   6
ATOM      6  C   LIG    1       49.163  59.023  39.466  0.00  0.00    +0.077 C 
ATOM      7  C   LIG    1       50.386  58.174  39.086  0.00  0.00    +0.044 C 
ATOM      8  C   LIG    1       51.049  57.830  40.420  0.00  0.00    +0.150 C 
ATOM     16  N   LIG    1       50.658  58.921  41.306  0.00  0.00    -0.209 NA
ATOM     17  C   LIG    1       49.647  59.785  40.710  0.00  0.00    +0.105 C 
BRANCH   8   9
ATOM      9  C   LIG    1       52.550  57.637  40.315  0.00  0.00    +0.242 C 
ATOM     10  O   LIG    1       53.185  58.270  39.472  0.00  0.00    -0.273 OA
ATOM     11  N   LIG    1       53.116  56.803  41.198  0.00  0.00    -0.268 N 
ATOM     12  C   LIG    1       52.293  56.074  42.172  0.00  0.00    +0.106 C 
ATOM     13  C   LIG    1       53.146  55.194  43.092  0.00  0.00    +0.081 C 
ATOM     14  S   LIG    1       54.659  55.050  42.264  0.00  0.00    -0.117 S 
ATOM     15  C   LIG    1       54.556  56.525  41.286  0.00  0.00    +0.152 C 
ENDBRANCH   8   9
ENDBRANCH   5   6
TORSDOF 4
ENDMDL
