MODEL 7
REMARK VINA RESULT:    -7.086      5.336      6.400
REMARK INTER + INTRA:          -9.552
REMARK INTER:                  -8.692
REMARK INTRA:                  -0.861
REMARK UNBOUND:                -0.809
REMARK  Name = ligand_1
REMARK                            x       y       z     vdW  Elec       q    Type
REMARK                         _______ _______ _______ _____ _____    ______ ____
ROOT
ATOM      2  N   LIG    1       51.488  61.876  35.248  0.00  0.00    -0.305 N 
ATOM      3  C   LIG    1       52.552  61.069  34.659  0.00  0.00    +0.108 C 
ATOM      4  C   LIG    1       53.539  60.664  35.759  0.00  0.00    +0.094 C 
ATOM      5  N   LIG    1       52.818  60.034  36.877  0.00  0.00    -0.270 NA
ATOM     18  C   LIG    1       51.746  60.835  37.452  0.00  0.00    +0.094 C 
ATOM     19  C   LIG    1       50.762  61.232  36.353  0.00  0.00    +0.108 C 
ENDROOT
BRANCH   2   1
ATOM      1  C   LIG    1       50.702  62.659  34.332  0.00  0.00    +0.051 A 
ATOM     20  C   LIG    1       50.944  64.034  34.106  0.00  0.00    +0.031 A 
ATOM     21  C   LIG    1       51.881  64.746  34.850  0.00  0.00    +0.003 A 
ATOM     22  C   LIG    1       52.096  66.100  34.611  0.00  0.00    +0.000 A 
ATOM     23  C   LIG    1       51.376  66.776  33.625  0.00  0.00    +0.002 A 
ATOM     24  C   LIG    1       50.437  66.080  32.870  0.00  0.00    +0.019 A 
ATOM     25  C   LIG    1       50.228  64.726  33.111  0.00  0.00    +0.082 A 
ATOM     26  N   LIG    1       49.302  64.090  32.372  0.00  0.00    -0.241 NA
ATOM     27  C   LIG    1       49.034  62.781  32.558  0.00  0.00    +0.154 A 
ATOM     32  C   LIG    1       49.733  62.039  33.524  0.00  0.00    +0.038 A 
BRANCH  27  28
ATOM     28  C   LIG    1       47.991  62.218  31.632  0.00  0.00    +0.435 C 
ATOM     29  F   LIG    1       47.527  63.192  30.875  0.00  0.00    -0.164 F 
ATOM     30  F   LIG    1       47.005  61.582  32.235  0.00  0.00    -0.164 F 
ATOM     31  F   LIG    1       48.613  61.367  30.843  0.00  0.00    -0.164 F 
ENDBRANCH  27  28
ENDBRANCH   2   1
BRANCH   5   6
ATOM      6  C   LIG    1       53.774  59.671  37.960  0.00  0.00    +0.077 C 
ATOM      7  C   LIG    1       53.387  58.370  38.682  0.00  0.00    +0.044 C 
ATOM      8  C   LIG    1       54.707  57.822  39.225  0.00  0.00    +0.150 C 
ATOM     16  N   LIG    1       55.717  58.359  38.320  0.00  0.00    -0.209 NA
ATOM     17  C   LIG    1       55.172  59.354  37.406  0.00  0.00    +0.105 C 
BRANCH   8   9
ATOM      9  C   LIG    1       54.730  56.309  39.338  0.00  0.00    +0.242 C 
ATOM     10  O   LIG    1       54.791  55.626  38.316  0.00  0.00    -0.273 OA
ATOM     11  N   LIG    1       54.729  55.794  40.575  0.00  0.00    -0.268 N 
ATOM     12  C   LIG    1       54.645  56.672  41.750  0.00  0.00    +0.106 C 
ATOM     13  C   LIG    1       54.677  55.875  43.059  0.00  0.00    +0.081 C 
ATOM     14  S   LIG    1       54.290  54.257  42.584  0.00  0.00    -0.117 S 
ATOM     15  C   LIG    1       54.797  54.361  40.888  0.00  0.00    +0.152 C 
ENDBRANCH   8   9
ENDBRANCH   5   6
TORSDOF 4
ENDMDL
