MODEL 7
REMARK VINA RESULT:    -7.508      5.732      7.465
REMARK INTER + INTRA:          -9.972
REMARK INTER:                  -9.886
REMARK INTRA:                  -0.086
REMARK UNBOUND:                -0.708
REMARK  Name = ligand_1
REMARK                            x       y       z     vdW  Elec       q    Type
REMARK                         _______ _______ _______ _____ _____    ______ ____
ROOT
ATOM      2  N   LIG    1       54.661  58.337  38.314  0.00  0.00    -0.305 N 
ATOM      3  C   LIG    1       53.388  58.395  37.602  0.00  0.00    +0.108 C 
ATOM      4  C   LIG    1       53.135  59.838  37.150  0.00  0.00    +0.094 C 
ATOM      5  N   LIG    1       54.297  60.343  36.402  0.00  0.00    -0.270 NA
ATOM     18  C   LIG    1       55.569  60.268  37.108  0.00  0.00    +0.094 C 
ATOM     19  C   LIG    1       55.819  58.828  37.553  0.00  0.00    +0.108 C 
ENDROOT
BRANCH   2   1
ATOM      1  C   LIG    1       54.876  57.175  39.136  0.00  0.00    +0.051 A 
ATOM     20  C   LIG    1       55.578  56.037  38.675  0.00  0.00    +0.031 A 
ATOM     21  C   LIG    1       56.000  55.921  37.353  0.00  0.00    +0.003 A 
ATOM     22  C   LIG    1       56.685  54.788  36.924  0.00  0.00    +0.000 A 
ATOM     23  C   LIG    1       56.961  53.742  37.806  0.00  0.00    +0.002 A 
ATOM     24  C   LIG    1       56.549  53.842  39.131  0.00  0.00    +0.019 A 
ATOM     25  C   LIG    1       55.867  54.978  39.556  0.00  0.00    +0.082 A 
ATOM     26  N   LIG    1       55.471  55.032  40.839  0.00  0.00    -0.241 NA
ATOM     27  C   LIG    1       54.793  56.095  41.319  0.00  0.00    +0.154 A 
ATOM     32  C   LIG    1       54.497  57.188  40.489  0.00  0.00    +0.038 A 
BRANCH  27  28
ATOM     28  C   LIG    1       54.449  56.009  42.781  0.00  0.00    +0.435 C 
ATOM     29  F   LIG    1       54.944  54.888  43.267  0.00  0.00    -0.164 F 
ATOM     30  F   LIG    1       53.161  56.107  43.050  0.00  0.00    -0.164 F 
ATOM     31  F   LIG    1       55.074  57.005  43.371  0.00  0.00    -0.164 F 
ENDBRANCH  27  28
ENDBRANCH   2   1
BRANCH   5   6
ATOM      6  C   LIG    1       54.065  61.756  35.991  0.00  0.00    +0.077 C 
ATOM      7  C   LIG    1       53.379  61.872  34.621  0.00  0.00    +0.044 C 
ATOM      8  C   LIG    1       52.650  63.215  34.665  0.00  0.00    +0.150 C 
ATOM     16  N   LIG    1       52.391  63.435  36.084  0.00  0.00    -0.209 NA
ATOM     17  C   LIG    1       53.078  62.469  36.930  0.00  0.00    +0.105 C 
BRANCH   8   9
ATOM      9  C   LIG    1       51.401  63.251  33.804  0.00  0.00    +0.242 C 
ATOM     10  O   LIG    1       50.763  62.215  33.618  0.00  0.00    -0.273 OA
ATOM     11  N   LIG    1       51.032  64.446  33.323  0.00  0.00    -0.268 N 
ATOM     12  C   LIG    1       51.849  65.639  33.578  0.00  0.00    +0.106 C 
ATOM     13  C   LIG    1       51.233  66.895  32.952  0.00  0.00    +0.081 C 
ATOM     14  S   LIG    1       50.107  66.284  31.788  0.00  0.00    -0.117 S 
ATOM     15  C   LIG    1       49.831  64.690  32.513  0.00  0.00    +0.152 C 
ENDBRANCH   8   9
ENDBRANCH   5   6
TORSDOF 4
ENDMDL
