MODEL 1
REMARK VINA RESULT:    -8.442      0.000      0.000
REMARK INTER + INTRA:         -11.118
REMARK INTER:                 -10.416
REMARK INTRA:                  -0.702
REMARK UNBOUND:                -0.702
REMARK  Name = ligand_1
REMARK                            x       y       z     vdW  Elec       q    Type
REMARK                         _______ _______ _______ _____ _____    ______ ____
ROOT
ATOM      2  N   LIG    1       50.271  61.807  38.266  0.00  0.00    -0.305 N 
ATOM      3  C   LIG    1       50.382  63.190  38.719  0.00  0.00    +0.108 C 
ATOM      4  C   LIG    1       51.610  63.832  38.065  0.00  0.00    +0.094 C 
ATOM      5  N   LIG    1       51.558  63.652  36.606  0.00  0.00    -0.270 NA
ATOM     18  C   LIG    1       51.431  62.271  36.157  0.00  0.00    +0.094 C 
ATOM     19  C   LIG    1       50.203  61.637  36.807  0.00  0.00    +0.108 C 
ENDROOT
BRANCH   2   1
ATOM      1  C   LIG    1       49.431  60.945  39.055  0.00  0.00    +0.051 A 
ATOM     20  C   LIG    1       49.946  59.869  39.814  0.00  0.00    +0.031 A 
ATOM     21  C   LIG    1       51.287  59.499  39.747  0.00  0.00    +0.003 A 
ATOM     22  C   LIG    1       51.767  58.432  40.501  0.00  0.00    +0.000 A 
ATOM     23  C   LIG    1       50.916  57.706  41.336  0.00  0.00    +0.002 A 
ATOM     24  C   LIG    1       49.574  58.063  41.416  0.00  0.00    +0.019 A 
ATOM     25  C   LIG    1       49.099  59.132  40.663  0.00  0.00    +0.082 A 
ATOM     26  N   LIG    1       47.794  59.437  40.755  0.00  0.00    -0.241 NA
ATOM     27  C   LIG    1       47.259  60.451  40.044  0.00  0.00    +0.154 A 
ATOM     32  C   LIG    1       48.062  61.231  39.197  0.00  0.00    +0.038 A 
BRANCH  27  28
ATOM     28  C   LIG    1       45.790  60.676  40.283  0.00  0.00    +0.435 C 
ATOM     29  F   LIG    1       45.412  59.946  41.313  0.00  0.00    -0.164 F 
ATOM     30  F   LIG    1       45.021  60.445  39.236  0.00  0.00    -0.164 F 
ATOM     31  F   LIG    1       45.658  61.940  40.625  0.00  0.00    -0.164 F 
ENDBRANCH  27  28
ENDBRANCH   2   1
BRANCH   5   6
ATOM      6  C   LIG    1       52.769  64.247  35.975  0.00  0.00    +0.077 C 
ATOM      7  C   LIG    1       54.031  64.079  36.834  0.00  0.00    +0.044 C 
ATOM      8  C   LIG    1       55.187  64.109  35.833  0.00  0.00    +0.150 C 
ATOM     16  N   LIG    1       54.594  63.638  34.587  0.00  0.00    -0.209 NA
ATOM     17  C   LIG    1       53.144  63.529  34.668  0.00  0.00    +0.105 C 
BRANCH   8   9
ATOM      9  C   LIG    1       56.391  63.301  36.280  0.00  0.00    +0.242 C 
ATOM     10  O   LIG    1       56.592  62.191  35.789  0.00  0.00    -0.273 OA
ATOM     11  N   LIG    1       57.211  63.878  37.170  0.00  0.00    -0.268 N 
ATOM     12  C   LIG    1       56.903  65.205  37.720  0.00  0.00    +0.106 C 
ATOM     13  C   LIG    1       57.980  65.677  38.702  0.00  0.00    +0.081 C 
ATOM     14  S   LIG    1       58.837  64.234  39.124  0.00  0.00    -0.117 S 
ATOM     15  C   LIG    1       58.449  63.276  37.683  0.00  0.00    +0.152 C 
ENDBRANCH   8   9
ENDBRANCH   5   6
TORSDOF 4
ENDMDL
