MODEL 3
REMARK VINA RESULT:    -7.763      4.973      9.244
REMARK INTER + INTRA:         -10.237
REMARK INTER:                  -9.907
REMARK INTRA:                  -0.330
REMARK UNBOUND:                -0.659
REMARK  Name = ligand_1
REMARK                            x       y       z     vdW  Elec       q    Type
REMARK                         _______ _______ _______ _____ _____    ______ ____
ROOT
ATOM      2  N   LIG    1       51.074  62.356  37.138  0.00  0.00    -0.305 N 
ATOM      3  C   LIG    1       50.236  61.338  36.512  0.00  0.00    +0.108 C 
ATOM      4  C   LIG    1       49.811  60.319  37.574  0.00  0.00    +0.094 C 
ATOM      5  N   LIG    1       49.207  61.010  38.723  0.00  0.00    -0.270 NA
ATOM     18  C   LIG    1       50.038  62.038  39.336  0.00  0.00    +0.094 C 
ATOM     19  C   LIG    1       50.455  63.054  38.275  0.00  0.00    +0.108 C 
ENDROOT
BRANCH   2   1
ATOM      1  C   LIG    1       51.872  63.157  36.248  0.00  0.00    +0.051 A 
ATOM     20  C   LIG    1       51.310  63.904  35.187  0.00  0.00    +0.031 A 
ATOM     21  C   LIG    1       49.959  63.813  34.860  0.00  0.00    +0.003 A 
ATOM     22  C   LIG    1       49.432  64.556  33.808  0.00  0.00    +0.000 A 
ATOM     23  C   LIG    1       50.245  65.403  33.052  0.00  0.00    +0.002 A 
ATOM     24  C   LIG    1       51.596  65.507  33.366  0.00  0.00    +0.019 A 
ATOM     25  C   LIG    1       52.118  64.766  34.421  0.00  0.00    +0.082 A 
ATOM     26  N   LIG    1       53.431  64.882  34.684  0.00  0.00    -0.241 NA
ATOM     27  C   LIG    1       54.010  64.183  35.682  0.00  0.00    +0.154 A 
ATOM     32  C   LIG    1       53.247  63.324  36.489  0.00  0.00    +0.038 A 
BRANCH  27  28
ATOM     28  C   LIG    1       55.480  64.448  35.859  0.00  0.00    +0.435 C 
ATOM     29  F   LIG    1       56.146  63.347  35.574  0.00  0.00    -0.164 F 
ATOM     30  F   LIG    1       55.817  64.903  37.051  0.00  0.00    -0.164 F 
ATOM     31  F   LIG    1       55.807  65.352  34.961  0.00  0.00    -0.164 F 
ENDBRANCH  27  28
ENDBRANCH   2   1
BRANCH   5   6
ATOM      6  C   LIG    1       48.824  60.022  39.770  0.00  0.00    +0.077 C 
ATOM      7  C   LIG    1       49.655  58.731  39.702  0.00  0.00    +0.044 C 
ATOM      8  C   LIG    1       49.628  58.177  41.127  0.00  0.00    +0.150 C 
ATOM     16  N   LIG    1       49.432  59.355  41.965  0.00  0.00    -0.209 NA
ATOM     17  C   LIG    1       49.119  60.546  41.185  0.00  0.00    +0.105 C 
BRANCH   8   9
ATOM      9  C   LIG    1       50.865  57.374  41.484  0.00  0.00    +0.242 C 
ATOM     10  O   LIG    1       51.979  57.871  41.321  0.00  0.00    -0.273 OA
ATOM     11  N   LIG    1       50.666  56.158  42.011  0.00  0.00    -0.268 N 
ATOM     12  C   LIG    1       49.306  55.625  42.168  0.00  0.00    +0.106 C 
ATOM     13  C   LIG    1       49.311  54.232  42.806  0.00  0.00    +0.081 C 
ATOM     14  S   LIG    1       50.937  53.675  42.603  0.00  0.00    -0.117 S 
ATOM     15  C   LIG    1       51.732  55.254  42.463  0.00  0.00    +0.152 C 
ENDBRANCH   8   9
ENDBRANCH   5   6
TORSDOF 4
ENDMDL
