MODEL 7
REMARK VINA RESULT:    -7.518      5.680      7.380
REMARK INTER + INTRA:          -9.985
REMARK INTER:                  -9.913
REMARK INTRA:                  -0.072
REMARK UNBOUND:                -0.709
REMARK  Name = ligand_1
REMARK                            x       y       z     vdW  Elec       q    Type
REMARK                         _______ _______ _______ _____ _____    ______ ____
ROOT
ATOM      2  N   LIG    1       54.641  58.418  38.288  0.00  0.00    -0.305 N 
ATOM      3  C   LIG    1       53.375  58.476  37.564  0.00  0.00    +0.108 C 
ATOM      4  C   LIG    1       53.118  59.921  37.123  0.00  0.00    +0.094 C 
ATOM      5  N   LIG    1       54.284  60.441  36.392  0.00  0.00    -0.270 NA
ATOM     18  C   LIG    1       55.550  60.366  37.110  0.00  0.00    +0.094 C 
ATOM     19  C   LIG    1       55.804  58.924  37.543  0.00  0.00    +0.108 C 
ENDROOT
BRANCH   2   1
ATOM      1  C   LIG    1       54.855  57.251  39.101  0.00  0.00    +0.051 A 
ATOM     20  C   LIG    1       55.560  56.117  38.633  0.00  0.00    +0.031 A 
ATOM     21  C   LIG    1       55.986  56.012  37.312  0.00  0.00    +0.003 A 
ATOM     22  C   LIG    1       56.673  54.883  36.876  0.00  0.00    +0.000 A 
ATOM     23  C   LIG    1       56.947  53.830  37.750  0.00  0.00    +0.002 A 
ATOM     24  C   LIG    1       56.531  53.920  39.075  0.00  0.00    +0.019 A 
ATOM     25  C   LIG    1       55.847  55.051  39.507  0.00  0.00    +0.082 A 
ATOM     26  N   LIG    1       55.448  55.095  40.789  0.00  0.00    -0.241 NA
ATOM     27  C   LIG    1       54.767  56.153  41.276  0.00  0.00    +0.154 A 
ATOM     32  C   LIG    1       54.471  57.252  40.454  0.00  0.00    +0.038 A 
BRANCH  27  28
ATOM     28  C   LIG    1       54.418  56.055  42.736  0.00  0.00    +0.435 C 
ATOM     29  F   LIG    1       54.848  54.897  43.197  0.00  0.00    -0.164 F 
ATOM     30  F   LIG    1       53.138  56.222  43.008  0.00  0.00    -0.164 F 
ATOM     31  F   LIG    1       55.100  57.000  43.347  0.00  0.00    -0.164 F 
ENDBRANCH  27  28
ENDBRANCH   2   1
BRANCH   5   6
ATOM      6  C   LIG    1       54.047  61.856  35.992  0.00  0.00    +0.077 C 
ATOM      7  C   LIG    1       53.416  61.982  34.596  0.00  0.00    +0.044 C 
ATOM      8  C   LIG    1       52.665  63.313  34.630  0.00  0.00    +0.150 C 
ATOM     16  N   LIG    1       52.346  63.509  36.040  0.00  0.00    -0.209 NA
ATOM     17  C   LIG    1       53.013  62.541  36.900  0.00  0.00    +0.105 C 
BRANCH   8   9
ATOM      9  C   LIG    1       51.452  63.344  33.719  0.00  0.00    +0.242 C 
ATOM     10  O   LIG    1       50.863  62.295  33.459  0.00  0.00    -0.273 OA
ATOM     11  N   LIG    1       51.055  64.546  33.279  0.00  0.00    -0.268 N 
ATOM     12  C   LIG    1       51.813  65.756  33.624  0.00  0.00    +0.106 C 
ATOM     13  C   LIG    1       51.174  67.016  33.032  0.00  0.00    +0.081 C 
ATOM     14  S   LIG    1       50.121  66.420  31.794  0.00  0.00    -0.117 S 
ATOM     15  C   LIG    1       49.879  64.783  32.432  0.00  0.00    +0.152 C 
ENDBRANCH   8   9
ENDBRANCH   5   6
TORSDOF 4
ENDMDL
