MODEL 9
REMARK VINA RESULT:    -6.762      5.084      8.397
REMARK INTER + INTRA:          -9.002
REMARK INTER:                  -8.659
REMARK INTRA:                  -0.342
REMARK UNBOUND:                -0.659
REMARK  Name = ligand_1
REMARK                            x       y       z     vdW  Elec       q    Type
REMARK                         _______ _______ _______ _____ _____    ______ ____
ROOT
ATOM      2  N   LIG    1       49.748  61.698  36.631  0.00  0.00    -0.305 N 
ATOM      3  C   LIG    1       49.647  60.327  36.139  0.00  0.00    +0.108 C 
ATOM      4  C   LIG    1       49.977  59.361  37.281  0.00  0.00    +0.094 C 
ATOM      5  N   LIG    1       49.148  59.668  38.457  0.00  0.00    -0.270 NA
ATOM     18  C   LIG    1       49.237  61.041  38.937  0.00  0.00    +0.094 C 
ATOM     19  C   LIG    1       48.903  62.000  37.796  0.00  0.00    +0.108 C 
ENDROOT
BRANCH   2   1
ATOM      1  C   LIG    1       49.857  62.726  35.630  0.00  0.00    +0.051 A 
ATOM     20  C   LIG    1       48.778  63.088  34.791  0.00  0.00    +0.031 A 
ATOM     21  C   LIG    1       47.575  62.385  34.798  0.00  0.00    +0.003 A 
ATOM     22  C   LIG    1       46.531  62.760  33.958  0.00  0.00    +0.000 A 
ATOM     23  C   LIG    1       46.665  63.843  33.087  0.00  0.00    +0.002 A 
ATOM     24  C   LIG    1       47.859  64.557  33.069  0.00  0.00    +0.019 A 
ATOM     25  C   LIG    1       48.900  64.181  33.912  0.00  0.00    +0.082 A 
ATOM     26  N   LIG    1       50.043  64.885  33.855  0.00  0.00    -0.241 NA
ATOM     27  C   LIG    1       51.099  64.571  34.632  0.00  0.00    +0.154 A 
ATOM     32  C   LIG    1       51.026  63.503  35.541  0.00  0.00    +0.038 A 
BRANCH  27  28
ATOM     28  C   LIG    1       52.290  65.475  34.465  0.00  0.00    +0.435 C 
ATOM     29  F   LIG    1       53.220  65.114  35.326  0.00  0.00    -0.164 F 
ATOM     30  F   LIG    1       52.023  66.762  34.575  0.00  0.00    -0.164 F 
ATOM     31  F   LIG    1       52.762  65.250  33.257  0.00  0.00    -0.164 F 
ENDBRANCH  27  28
ENDBRANCH   2   1
BRANCH   5   6
ATOM      6  C   LIG    1       49.492  58.750  39.578  0.00  0.00    +0.077 C 
ATOM      7  C   LIG    1       50.683  57.835  39.254  0.00  0.00    +0.044 C 
ATOM      8  C   LIG    1       51.291  57.493  40.614  0.00  0.00    +0.150 C 
ATOM     16  N   LIG    1       50.928  58.623  41.463  0.00  0.00    -0.209 NA
ATOM     17  C   LIG    1       49.977  59.519  40.818  0.00  0.00    +0.105 C 
BRANCH   8   9
ATOM      9  C   LIG    1       52.783  57.227  40.558  0.00  0.00    +0.242 C 
ATOM     10  O   LIG    1       53.490  57.893  39.802  0.00  0.00    -0.273 OA
ATOM     11  N   LIG    1       53.263  56.290  41.388  0.00  0.00    -0.268 N 
ATOM     12  C   LIG    1       52.358  55.527  42.257  0.00  0.00    +0.106 C 
ATOM     13  C   LIG    1       53.119  54.525  43.132  0.00  0.00    +0.081 C 
ATOM     14  S   LIG    1       54.660  54.369  42.361  0.00  0.00    -0.117 S 
ATOM     15  C   LIG    1       54.681  55.926  41.513  0.00  0.00    +0.152 C 
ENDBRANCH   8   9
ENDBRANCH   5   6
TORSDOF 4
ENDMDL
