MODEL 6
REMARK VINA RESULT:    -7.546      6.669      9.382
REMARK INTER + INTRA:         -10.091
REMARK INTER:                  -9.160
REMARK INTRA:                  -0.931
REMARK UNBOUND:                -0.781
REMARK  Name = ligand_1
REMARK                            x       y       z     vdW  Elec       q    Type
REMARK                         _______ _______ _______ _____ _____    ______ ____
ROOT
ATOM      2  N   LIG    1       52.408  63.262  35.603  0.00  0.00    -0.305 N 
ATOM      3  C   LIG    1       52.481  64.229  34.511  0.00  0.00    +0.108 C 
ATOM      4  C   LIG    1       51.205  64.127  33.668  0.00  0.00    +0.094 C 
ATOM      5  N   LIG    1       50.020  64.242  34.531  0.00  0.00    -0.270 NA
ATOM     18  C   LIG    1       49.957  63.287  35.629  0.00  0.00    +0.094 C 
ATOM     19  C   LIG    1       51.227  63.396  36.469  0.00  0.00    +0.108 C 
ENDROOT
BRANCH   2   1
ATOM      1  C   LIG    1       53.651  62.942  36.252  0.00  0.00    +0.051 A 
ATOM     20  C   LIG    1       54.096  61.611  36.427  0.00  0.00    +0.031 A 
ATOM     21  C   LIG    1       53.298  60.520  36.091  0.00  0.00    +0.003 A 
ATOM     22  C   LIG    1       53.759  59.220  36.279  0.00  0.00    +0.000 A 
ATOM     23  C   LIG    1       55.026  58.980  36.812  0.00  0.00    +0.002 A 
ATOM     24  C   LIG    1       55.838  60.058  37.151  0.00  0.00    +0.019 A 
ATOM     25  C   LIG    1       55.375  61.356  36.959  0.00  0.00    +0.082 A 
ATOM     26  N   LIG    1       56.181  62.371  37.313  0.00  0.00    -0.241 NA
ATOM     27  C   LIG    1       55.794  63.656  37.169  0.00  0.00    +0.154 A 
ATOM     32  C   LIG    1       54.538  63.967  36.626  0.00  0.00    +0.038 A 
BRANCH  27  28
ATOM     28  C   LIG    1       56.824  64.669  37.587  0.00  0.00    +0.435 C 
ATOM     29  F   LIG    1       56.687  65.746  36.840  0.00  0.00    -0.164 F 
ATOM     30  F   LIG    1       58.069  64.233  37.557  0.00  0.00    -0.164 F 
ATOM     31  F   LIG    1       56.532  65.008  38.825  0.00  0.00    -0.164 F 
ENDBRANCH  27  28
ENDBRANCH   2   1
BRANCH   5   6
ATOM      6  C   LIG    1       48.780  64.110  33.715  0.00  0.00    +0.077 C 
ATOM      7  C   LIG    1       49.035  63.457  32.348  0.00  0.00    +0.044 C 
ATOM      8  C   LIG    1       47.699  62.816  31.970  0.00  0.00    +0.150 C 
ATOM     16  N   LIG    1       47.055  62.549  33.251  0.00  0.00    -0.209 NA
ATOM     17  C   LIG    1       47.766  63.157  34.368  0.00  0.00    +0.105 C 
BRANCH   8   9
ATOM      9  C   LIG    1       47.847  61.587  31.093  0.00  0.00    +0.242 C 
ATOM     10  O   LIG    1       48.629  60.697  31.424  0.00  0.00    -0.273 OA
ATOM     11  N   LIG    1       47.064  61.521  30.006  0.00  0.00    -0.268 N 
ATOM     12  C   LIG    1       46.160  62.627  29.668  0.00  0.00    +0.106 C 
ATOM     13  C   LIG    1       45.350  62.333  28.401  0.00  0.00    +0.081 C 
ATOM     14  S   LIG    1       46.212  61.044  27.633  0.00  0.00    -0.117 S 
ATOM     15  C   LIG    1       47.028  60.393  29.065  0.00  0.00    +0.152 C 
ENDBRANCH   8   9
ENDBRANCH   5   6
TORSDOF 4
ENDMDL
