MODEL 7
REMARK VINA RESULT:    -7.428      6.570      9.313
REMARK INTER + INTRA:          -9.849
REMARK INTER:                  -8.978
REMARK INTRA:                  -0.871
REMARK UNBOUND:                -0.684
REMARK  Name = ligand_1
REMARK                            x       y       z     vdW  Elec       q    Type
REMARK                         _______ _______ _______ _____ _____    ______ ____
ROOT
ATOM      2  N   LIG    1       53.094  63.490  34.858  0.00  0.00    -0.305 N 
ATOM      3  C   LIG    1       53.529  63.494  33.464  0.00  0.00    +0.108 C 
ATOM      4  C   LIG    1       52.295  63.472  32.556  0.00  0.00    +0.094 C 
ATOM      5  N   LIG    1       51.375  64.558  32.929  0.00  0.00    -0.270 NA
ATOM     18  C   LIG    1       50.955  64.562  34.324  0.00  0.00    +0.094 C 
ATOM     19  C   LIG    1       52.188  64.589  35.225  0.00  0.00    +0.108 C 
ENDROOT
BRANCH   2   1
ATOM      1  C   LIG    1       54.085  63.119  35.832  0.00  0.00    +0.051 A 
ATOM     20  C   LIG    1       54.320  61.775  36.204  0.00  0.00    +0.031 A 
ATOM     21  C   LIG    1       53.519  60.735  35.739  0.00  0.00    +0.003 A 
ATOM     22  C   LIG    1       53.769  59.421  36.124  0.00  0.00    +0.000 A 
ATOM     23  C   LIG    1       54.822  59.116  36.988  0.00  0.00    +0.002 A 
ATOM     24  C   LIG    1       55.633  60.143  37.460  0.00  0.00    +0.019 A 
ATOM     25  C   LIG    1       55.382  61.454  37.070  0.00  0.00    +0.082 A 
ATOM     26  N   LIG    1       56.178  62.421  37.559  0.00  0.00    -0.241 NA
ATOM     27  C   LIG    1       55.986  63.717  37.237  0.00  0.00    +0.154 A 
ATOM     32  C   LIG    1       54.954  64.090  36.361  0.00  0.00    +0.038 A 
BRANCH  27  28
ATOM     28  C   LIG    1       56.979  64.667  37.848  0.00  0.00    +0.435 C 
ATOM     29  F   LIG    1       58.191  64.176  37.682  0.00  0.00    -0.164 F 
ATOM     30  F   LIG    1       56.759  64.952  39.117  0.00  0.00    -0.164 F 
ATOM     31  F   LIG    1       56.905  65.782  37.152  0.00  0.00    -0.164 F 
ENDBRANCH  27  28
ENDBRANCH   2   1
BRANCH   5   6
ATOM      6  C   LIG    1       50.161  64.517  32.067  0.00  0.00    +0.077 C 
ATOM      7  C   LIG    1       49.279  63.289  32.341  0.00  0.00    +0.044 C 
ATOM      8  C   LIG    1       47.873  63.721  31.924  0.00  0.00    +0.150 C 
ATOM     16  N   LIG    1       47.880  65.170  32.090  0.00  0.00    -0.209 NA
ATOM     17  C   LIG    1       49.213  65.692  32.359  0.00  0.00    +0.105 C 
BRANCH   8   9
ATOM      9  C   LIG    1       46.773  63.023  32.702  0.00  0.00    +0.242 C 
ATOM     10  O   LIG    1       46.483  63.420  33.830  0.00  0.00    -0.273 OA
ATOM     11  N   LIG    1       46.135  62.021  32.082  0.00  0.00    -0.268 N 
ATOM     12  C   LIG    1       46.542  61.594  30.737  0.00  0.00    +0.106 C 
ATOM     13  C   LIG    1       45.668  60.448  30.215  0.00  0.00    +0.081 C 
ATOM     14  S   LIG    1       44.905  59.813  31.632  0.00  0.00    -0.117 S 
ATOM     15  C   LIG    1       45.015  61.259  32.651  0.00  0.00    +0.152 C 
ENDBRANCH   8   9
ENDBRANCH   5   6
TORSDOF 4
ENDMDL
