MODEL 6
REMARK VINA RESULT:    -5.545      7.251      8.632
REMARK INTER + INTRA:          -7.677
REMARK INTER:                  -6.824
REMARK INTRA:                  -0.852
REMARK UNBOUND:                -0.835
REMARK  Name = ligand_1
REMARK                            x       y       z     vdW  Elec       q    Type
REMARK                         _______ _______ _______ _____ _____    ______ ____
ROOT
ATOM      2  N   LIG    1       50.197  60.423  32.291  0.00  0.00    -0.305 N 
ATOM      3  C   LIG    1       50.040  59.972  30.911  0.00  0.00    +0.108 C 
ATOM      4  C   LIG    1       50.568  58.539  30.792  0.00  0.00    +0.094 C 
ATOM      5  N   LIG    1       49.938  57.682  31.808  0.00  0.00    -0.270 NA
ATOM     18  C   LIG    1       50.081  58.143  33.183  0.00  0.00    +0.094 C 
ATOM     19  C   LIG    1       49.549  59.570  33.298  0.00  0.00    +0.108 C 
ENDROOT
BRANCH   2   1
ATOM      1  C   LIG    1       50.125  61.844  32.507  0.00  0.00    +0.051 A 
ATOM     20  C   LIG    1       51.260  62.621  32.834  0.00  0.00    +0.031 A 
ATOM     21  C   LIG    1       52.500  62.040  33.088  0.00  0.00    +0.003 A 
ATOM     22  C   LIG    1       53.600  62.828  33.412  0.00  0.00    +0.000 A 
ATOM     23  C   LIG    1       53.486  64.217  33.495  0.00  0.00    +0.002 A 
ATOM     24  C   LIG    1       52.255  64.815  33.242  0.00  0.00    +0.019 A 
ATOM     25  C   LIG    1       51.159  64.023  32.916  0.00  0.00    +0.082 A 
ATOM     26  N   LIG    1       49.984  64.635  32.694  0.00  0.00    -0.241 NA
ATOM     27  C   LIG    1       48.874  63.932  32.386  0.00  0.00    +0.154 A 
ATOM     32  C   LIG    1       48.923  62.534  32.272  0.00  0.00    +0.038 A 
BRANCH  27  28
ATOM     28  C   LIG    1       47.649  64.771  32.142  0.00  0.00    +0.435 C 
ATOM     29  F   LIG    1       48.022  66.022  31.960  0.00  0.00    -0.164 F 
ATOM     30  F   LIG    1       46.730  64.689  33.085  0.00  0.00    -0.164 F 
ATOM     31  F   LIG    1       47.125  64.346  31.012  0.00  0.00    -0.164 F 
ENDBRANCH  27  28
ENDBRANCH   2   1
BRANCH   5   6
ATOM      6  C   LIG    1       50.475  56.296  31.713  0.00  0.00    +0.077 C 
ATOM      7  C   LIG    1       51.985  56.262  31.429  0.00  0.00    +0.044 C 
ATOM      8  C   LIG    1       52.457  54.928  32.006  0.00  0.00    +0.150 C 
ATOM     16  N   LIG    1       51.496  54.634  33.063  0.00  0.00    -0.209 NA
ATOM     17  C   LIG    1       50.359  55.545  33.049  0.00  0.00    +0.105 C 
BRANCH   8   9
ATOM      9  C   LIG    1       53.898  54.953  32.481  0.00  0.00    +0.242 C 
ATOM     10  O   LIG    1       54.143  55.210  33.659  0.00  0.00    -0.273 OA
ATOM     11  N   LIG    1       54.839  54.641  31.579  0.00  0.00    -0.268 N 
ATOM     12  C   LIG    1       54.472  54.354  30.186  0.00  0.00    +0.106 C 
ATOM     13  C   LIG    1       55.698  54.005  29.335  0.00  0.00    +0.081 C 
ATOM     14  S   LIG    1       57.039  54.591  30.258  0.00  0.00    -0.117 S 
ATOM     15  C   LIG    1       56.279  54.564  31.859  0.00  0.00    +0.152 C 
ENDBRANCH   8   9
ENDBRANCH   5   6
TORSDOF 4
ENDMDL
