MODEL 7
REMARK VINA RESULT:    -7.511      5.658      7.385
REMARK INTER + INTRA:          -9.954
REMARK INTER:                  -9.853
REMARK INTRA:                  -0.101
REMARK UNBOUND:                -0.687
REMARK  Name = ligand_1
REMARK                            x       y       z     vdW  Elec       q    Type
REMARK                         _______ _______ _______ _____ _____    ______ ____
ROOT
ATOM      2  N   LIG    1       54.630  58.476  38.248  0.00  0.00    -0.305 N 
ATOM      3  C   LIG    1       53.391  58.509  37.477  0.00  0.00    +0.108 C 
ATOM      4  C   LIG    1       53.113  59.952  37.041  0.00  0.00    +0.094 C 
ATOM      5  N   LIG    1       54.292  60.508  36.358  0.00  0.00    -0.270 NA
ATOM     18  C   LIG    1       55.532  60.458  37.122  0.00  0.00    +0.094 C 
ATOM     19  C   LIG    1       55.806  59.019  37.551  0.00  0.00    +0.108 C 
ENDROOT
BRANCH   2   1
ATOM      1  C   LIG    1       54.844  57.306  39.057  0.00  0.00    +0.051 A 
ATOM     20  C   LIG    1       55.581  56.189  38.599  0.00  0.00    +0.031 A 
ATOM     21  C   LIG    1       56.043  56.102  37.288  0.00  0.00    +0.003 A 
ATOM     22  C   LIG    1       56.762  54.989  36.862  0.00  0.00    +0.000 A 
ATOM     23  C   LIG    1       57.032  53.934  37.735  0.00  0.00    +0.002 A 
ATOM     24  C   LIG    1       56.580  54.005  39.049  0.00  0.00    +0.019 A 
ATOM     25  C   LIG    1       55.864  55.121  39.471  0.00  0.00    +0.082 A 
ATOM     26  N   LIG    1       55.431  55.147  40.743  0.00  0.00    -0.241 NA
ATOM     27  C   LIG    1       54.719  56.189  41.220  0.00  0.00    +0.154 A 
ATOM     32  C   LIG    1       54.425  57.289  40.399  0.00  0.00    +0.038 A 
BRANCH  27  28
ATOM     28  C   LIG    1       54.335  56.072  42.670  0.00  0.00    +0.435 C 
ATOM     29  F   LIG    1       54.670  54.873  43.102  0.00  0.00    -0.164 F 
ATOM     30  F   LIG    1       53.064  56.324  42.924  0.00  0.00    -0.164 F 
ATOM     31  F   LIG    1       55.070  56.947  43.322  0.00  0.00    -0.164 F 
ENDBRANCH  27  28
ENDBRANCH   2   1
BRANCH   5   6
ATOM      6  C   LIG    1       54.034  61.921  35.963  0.00  0.00    +0.077 C 
ATOM      7  C   LIG    1       53.394  62.041  34.572  0.00  0.00    +0.044 C 
ATOM      8  C   LIG    1       52.625  63.362  34.612  0.00  0.00    +0.150 C 
ATOM     16  N   LIG    1       52.311  63.551  36.024  0.00  0.00    -0.209 NA
ATOM     17  C   LIG    1       52.995  62.589  36.878  0.00  0.00    +0.105 C 
BRANCH   8   9
ATOM      9  C   LIG    1       51.407  63.379  33.708  0.00  0.00    +0.242 C 
ATOM     10  O   LIG    1       50.814  62.327  33.471  0.00  0.00    -0.273 OA
ATOM     11  N   LIG    1       51.011  64.573  33.246  0.00  0.00    -0.268 N 
ATOM     12  C   LIG    1       51.775  65.787  33.563  0.00  0.00    +0.106 C 
ATOM     13  C   LIG    1       51.136  67.038  32.949  0.00  0.00    +0.081 C 
ATOM     14  S   LIG    1       50.075  66.420  31.730  0.00  0.00    -0.117 S 
ATOM     15  C   LIG    1       49.831  64.797  32.401  0.00  0.00    +0.152 C 
ENDBRANCH   8   9
ENDBRANCH   5   6
TORSDOF 4
ENDMDL
