MODEL 2
REMARK VINA RESULT:    -8.167      5.494      9.870
REMARK INTER + INTRA:         -10.784
REMARK INTER:                  -9.946
REMARK INTRA:                  -0.838
REMARK UNBOUND:                -0.708
REMARK  Name = ligand_1
REMARK                            x       y       z     vdW  Elec       q    Type
REMARK                         _______ _______ _______ _____ _____    ______ ____
ROOT
ATOM      2  N   LIG    1       51.217  62.622  37.454  0.00  0.00    -0.305 N 
ATOM      3  C   LIG    1       50.813  63.372  38.640  0.00  0.00    +0.108 C 
ATOM      4  C   LIG    1       49.637  62.654  39.308  0.00  0.00    +0.094 C 
ATOM      5  N   LIG    1       49.976  61.242  39.545  0.00  0.00    -0.270 NA
ATOM     18  C   LIG    1       50.395  60.499  38.363  0.00  0.00    +0.094 C 
ATOM     19  C   LIG    1       51.571  61.216  37.703  0.00  0.00    +0.108 C 
ENDROOT
BRANCH   2   1
ATOM      1  C   LIG    1       52.026  63.331  36.499  0.00  0.00    +0.051 A 
ATOM     20  C   LIG    1       51.477  63.973  35.365  0.00  0.00    +0.031 A 
ATOM     21  C   LIG    1       50.128  63.854  35.037  0.00  0.00    +0.003 A 
ATOM     22  C   LIG    1       49.614  64.493  33.912  0.00  0.00    +0.000 A 
ATOM     23  C   LIG    1       50.436  65.261  33.086  0.00  0.00    +0.002 A 
ATOM     24  C   LIG    1       51.785  65.392  33.400  0.00  0.00    +0.019 A 
ATOM     25  C   LIG    1       52.294  64.754  34.527  0.00  0.00    +0.082 A 
ATOM     26  N   LIG    1       53.605  64.892  34.790  0.00  0.00    -0.241 NA
ATOM     27  C   LIG    1       54.173  64.291  35.857  0.00  0.00    +0.154 A 
ATOM     32  C   LIG    1       53.400  63.516  36.736  0.00  0.00    +0.038 A 
BRANCH  27  28
ATOM     28  C   LIG    1       55.642  64.568  36.021  0.00  0.00    +0.435 C 
ATOM     29  F   LIG    1       56.323  63.557  35.519  0.00  0.00    -0.164 F 
ATOM     30  F   LIG    1       56.020  64.816  37.262  0.00  0.00    -0.164 F 
ATOM     31  F   LIG    1       55.907  65.627  35.287  0.00  0.00    -0.164 F 
ENDBRANCH  27  28
ENDBRANCH   2   1
BRANCH   5   6
ATOM      6  C   LIG    1       48.821  60.535  40.165  0.00  0.00    +0.077 C 
ATOM      7  C   LIG    1       48.560  59.158  39.537  0.00  0.00    +0.044 C 
ATOM      8  C   LIG    1       47.869  58.354  40.640  0.00  0.00    +0.150 C 
ATOM     16  N   LIG    1       48.343  58.964  41.877  0.00  0.00    -0.209 NA
ATOM     17  C   LIG    1       49.084  60.196  41.641  0.00  0.00    +0.105 C 
BRANCH   8   9
ATOM      9  C   LIG    1       48.134  56.863  40.554  0.00  0.00    +0.242 C 
ATOM     10  O   LIG    1       49.190  56.409  40.993  0.00  0.00    -0.273 OA
ATOM     11  N   LIG    1       47.159  56.103  40.035  0.00  0.00    -0.268 N 
ATOM     12  C   LIG    1       45.927  56.717  39.522  0.00  0.00    +0.106 C 
ATOM     13  C   LIG    1       44.946  55.665  38.994  0.00  0.00    +0.081 C 
ATOM     14  S   LIG    1       45.917  54.251  38.764  0.00  0.00    -0.117 S 
ATOM     15  C   LIG    1       47.209  54.640  39.914  0.00  0.00    +0.152 C 
ENDBRANCH   8   9
ENDBRANCH   5   6
TORSDOF 4
ENDMDL
