MODEL 2
REMARK VINA RESULT:    -8.102      5.448      9.864
REMARK INTER + INTRA:         -10.703
REMARK INTER:                  -9.888
REMARK INTRA:                  -0.815
REMARK UNBOUND:                -0.707
REMARK  Name = ligand_1
REMARK                            x       y       z     vdW  Elec       q    Type
REMARK                         _______ _______ _______ _____ _____    ______ ____
ROOT
ATOM      2  N   LIG    1       51.212  62.611  37.440  0.00  0.00    -0.305 N 
ATOM      3  C   LIG    1       50.814  63.368  38.623  0.00  0.00    +0.108 C 
ATOM      4  C   LIG    1       49.651  62.646  39.311  0.00  0.00    +0.094 C 
ATOM      5  N   LIG    1       50.004  61.239  39.556  0.00  0.00    -0.270 NA
ATOM     18  C   LIG    1       50.417  60.489  38.377  0.00  0.00    +0.094 C 
ATOM     19  C   LIG    1       51.579  61.210  37.698  0.00  0.00    +0.108 C 
ENDROOT
BRANCH   2   1
ATOM      1  C   LIG    1       52.005  63.317  36.470  0.00  0.00    +0.051 A 
ATOM     20  C   LIG    1       51.437  63.951  35.340  0.00  0.00    +0.031 A 
ATOM     21  C   LIG    1       50.086  63.825  35.030  0.00  0.00    +0.003 A 
ATOM     22  C   LIG    1       49.553  64.455  33.909  0.00  0.00    +0.000 A 
ATOM     23  C   LIG    1       50.361  65.222  33.068  0.00  0.00    +0.002 A 
ATOM     24  C   LIG    1       51.714  65.360  33.364  0.00  0.00    +0.019 A 
ATOM     25  C   LIG    1       52.241  64.731  34.487  0.00  0.00    +0.082 A 
ATOM     26  N   LIG    1       53.554  64.875  34.732  0.00  0.00    -0.241 NA
ATOM     27  C   LIG    1       54.139  64.283  35.794  0.00  0.00    +0.154 A 
ATOM     32  C   LIG    1       53.381  63.510  36.688  0.00  0.00    +0.038 A 
BRANCH  27  28
ATOM     28  C   LIG    1       55.609  64.567  35.938  0.00  0.00    +0.435 C 
ATOM     29  F   LIG    1       55.917  64.566  37.219  0.00  0.00    -0.164 F 
ATOM     30  F   LIG    1       56.013  65.683  35.360  0.00  0.00    -0.164 F 
ATOM     31  F   LIG    1       56.240  63.557  35.378  0.00  0.00    -0.164 F 
ENDBRANCH  27  28
ENDBRANCH   2   1
BRANCH   5   6
ATOM      6  C   LIG    1       48.861  60.529  40.194  0.00  0.00    +0.077 C 
ATOM      7  C   LIG    1       48.561  59.173  39.537  0.00  0.00    +0.044 C 
ATOM      8  C   LIG    1       47.898  58.347  40.638  0.00  0.00    +0.150 C 
ATOM     16  N   LIG    1       48.421  58.915  41.876  0.00  0.00    -0.209 NA
ATOM     17  C   LIG    1       49.169  60.144  41.650  0.00  0.00    +0.105 C 
BRANCH   8   9
ATOM      9  C   LIG    1       48.140  56.855  40.502  0.00  0.00    +0.242 C 
ATOM     10  O   LIG    1       49.198  56.374  40.904  0.00  0.00    -0.273 OA
ATOM     11  N   LIG    1       47.145  56.125  39.979  0.00  0.00    -0.268 N 
ATOM     12  C   LIG    1       45.911  56.771  39.510  0.00  0.00    +0.106 C 
ATOM     13  C   LIG    1       44.905  55.749  38.969  0.00  0.00    +0.081 C 
ATOM     14  S   LIG    1       45.852  54.330  38.677  0.00  0.00    -0.117 S 
ATOM     15  C   LIG    1       47.172  54.666  39.812  0.00  0.00    +0.152 C 
ENDBRANCH   8   9
ENDBRANCH   5   6
TORSDOF 4
ENDMDL
