MODEL 4
REMARK VINA RESULT:    -7.652      4.612      8.836
REMARK INTER + INTRA:         -10.150
REMARK INTER:                  -9.517
REMARK INTRA:                  -0.634
REMARK UNBOUND:                -0.709
REMARK  Name = ligand_1
REMARK                            x       y       z     vdW  Elec       q    Type
REMARK                         _______ _______ _______ _____ _____    ______ ____
ROOT
ATOM      2  N   LIG    1       50.711  63.051  36.561  0.00  0.00    -0.305 N 
ATOM      3  C   LIG    1       49.392  62.649  36.081  0.00  0.00    +0.108 C 
ATOM      4  C   LIG    1       48.903  61.455  36.909  0.00  0.00    +0.094 C 
ATOM      5  N   LIG    1       48.980  61.771  38.344  0.00  0.00    -0.270 NA
ATOM     18  C   LIG    1       50.294  62.188  38.817  0.00  0.00    +0.094 C 
ATOM     19  C   LIG    1       50.775  63.381  37.992  0.00  0.00    +0.108 C 
ENDROOT
BRANCH   2   1
ATOM      1  C   LIG    1       51.484  63.880  35.674  0.00  0.00    +0.051 A 
ATOM     20  C   LIG    1       52.896  63.829  35.624  0.00  0.00    +0.031 A 
ATOM     21  C   LIG    1       53.635  63.061  36.521  0.00  0.00    +0.003 A 
ATOM     22  C   LIG    1       55.025  63.033  36.453  0.00  0.00    +0.000 A 
ATOM     23  C   LIG    1       55.710  63.777  35.491  0.00  0.00    +0.002 A 
ATOM     24  C   LIG    1       54.987  64.549  34.586  0.00  0.00    +0.019 A 
ATOM     25  C   LIG    1       53.598  64.571  34.655  0.00  0.00    +0.082 A 
ATOM     26  N   LIG    1       52.936  65.340  33.774  0.00  0.00    -0.241 NA
ATOM     27  C   LIG    1       51.589  65.423  33.790  0.00  0.00    +0.154 A 
ATOM     32  C   LIG    1       50.839  64.689  34.722  0.00  0.00    +0.038 A 
BRANCH  27  28
ATOM     28  C   LIG    1       51.005  66.306  32.721  0.00  0.00    +0.435 C 
ATOM     29  F   LIG    1       51.237  67.564  33.037  0.00  0.00    -0.164 F 
ATOM     30  F   LIG    1       49.721  66.110  32.487  0.00  0.00    -0.164 F 
ATOM     31  F   LIG    1       51.672  66.046  31.617  0.00  0.00    -0.164 F 
ENDBRANCH  27  28
ENDBRANCH   2   1
BRANCH   5   6
ATOM      6  C   LIG    1       48.536  60.599  39.149  0.00  0.00    +0.077 C 
ATOM      7  C   LIG    1       49.546  59.442  39.122  0.00  0.00    +0.044 C 
ATOM      8  C   LIG    1       49.300  58.682  40.426  0.00  0.00    +0.150 C 
ATOM     16  N   LIG    1       48.756  59.690  41.329  0.00  0.00    -0.209 NA
ATOM     17  C   LIG    1       48.441  60.937  40.646  0.00  0.00    +0.105 C 
BRANCH   8   9
ATOM      9  C   LIG    1       50.539  57.988  40.961  0.00  0.00    +0.242 C 
ATOM     10  O   LIG    1       51.634  58.538  40.858  0.00  0.00    -0.273 OA
ATOM     11  N   LIG    1       50.356  56.808  41.570  0.00  0.00    -0.268 N 
ATOM     12  C   LIG    1       49.018  56.206  41.647  0.00  0.00    +0.106 C 
ATOM     13  C   LIG    1       49.037  54.871  42.400  0.00  0.00    +0.081 C 
ATOM     14  S   LIG    1       50.703  54.402  42.394  0.00  0.00    -0.117 S 
ATOM     15  C   LIG    1       51.421  56.011  42.193  0.00  0.00    +0.152 C 
ENDBRANCH   8   9
ENDBRANCH   5   6
TORSDOF 4
ENDMDL
