MODEL 7
REMARK VINA RESULT:    -5.117      6.387      7.342
REMARK INTER + INTRA:          -7.149
REMARK INTER:                  -7.106
REMARK INTRA:                  -0.043
REMARK UNBOUND:                -0.835
REMARK  Name = ligand_1
REMARK                            x       y       z     vdW  Elec       q    Type
REMARK                         _______ _______ _______ _____ _____    ______ ____
ROOT
ATOM      2  N   LIG    1       51.836  60.727  33.439  0.00  0.00    -0.305 N 
ATOM      3  C   LIG    1       51.403  60.455  32.072  0.00  0.00    +0.108 C 
ATOM      4  C   LIG    1       51.473  58.946  31.817  0.00  0.00    +0.094 C 
ATOM      5  N   LIG    1       50.736  58.222  32.864  0.00  0.00    -0.270 NA
ATOM     18  C   LIG    1       51.159  58.508  34.229  0.00  0.00    +0.094 C 
ATOM     19  C   LIG    1       51.083  60.012  34.480  0.00  0.00    +0.108 C 
ENDROOT
BRANCH   2   1
ATOM      1  C   LIG    1       52.206  62.087  33.730  0.00  0.00    +0.051 A 
ATOM     20  C   LIG    1       51.349  63.180  33.465  0.00  0.00    +0.031 A 
ATOM     21  C   LIG    1       50.141  63.020  32.791  0.00  0.00    +0.003 A 
ATOM     22  C   LIG    1       49.319  64.114  32.539  0.00  0.00    +0.000 A 
ATOM     23  C   LIG    1       49.688  65.396  32.950  0.00  0.00    +0.002 A 
ATOM     24  C   LIG    1       50.891  65.575  33.626  0.00  0.00    +0.019 A 
ATOM     25  C   LIG    1       51.708  64.477  33.879  0.00  0.00    +0.082 A 
ATOM     26  N   LIG    1       52.869  64.691  34.521  0.00  0.00    -0.241 NA
ATOM     27  C   LIG    1       53.719  63.678  34.788  0.00  0.00    +0.154 A 
ATOM     32  C   LIG    1       53.402  62.362  34.415  0.00  0.00    +0.038 A 
BRANCH  27  28
ATOM     28  C   LIG    1       54.960  64.084  35.536  0.00  0.00    +0.435 C 
ATOM     29  F   LIG    1       55.458  65.167  34.974  0.00  0.00    -0.164 F 
ATOM     30  F   LIG    1       55.878  63.141  35.630  0.00  0.00    -0.164 F 
ATOM     31  F   LIG    1       54.574  64.410  36.750  0.00  0.00    -0.164 F 
ENDBRANCH  27  28
ENDBRANCH   2   1
BRANCH   5   6
ATOM      6  C   LIG    1       50.832  56.753  32.635  0.00  0.00    +0.077 C 
ATOM      7  C   LIG    1       52.140  56.344  31.940  0.00  0.00    +0.044 C 
ATOM      8  C   LIG    1       52.373  54.897  32.373  0.00  0.00    +0.150 C 
ATOM     16  N   LIG    1       51.693  54.795  33.660  0.00  0.00    -0.209 NA
ATOM     17  C   LIG    1       50.886  55.971  33.957  0.00  0.00    +0.105 C 
BRANCH   8   9
ATOM      9  C   LIG    1       53.839  54.512  32.425  0.00  0.00    +0.242 C 
ATOM     10  O   LIG    1       54.429  54.514  33.505  0.00  0.00    -0.273 OA
ATOM     11  N   LIG    1       54.408  54.138  31.271  0.00  0.00    -0.268 N 
ATOM     12  C   LIG    1       53.645  54.168  30.016  0.00  0.00    +0.106 C 
ATOM     13  C   LIG    1       54.483  53.684  28.828  0.00  0.00    +0.081 C 
ATOM     14  S   LIG    1       56.117  53.789  29.387  0.00  0.00    -0.117 S 
ATOM     15  C   LIG    1       55.799  53.685  31.128  0.00  0.00    +0.152 C 
ENDBRANCH   8   9
ENDBRANCH   5   6
TORSDOF 4
ENDMDL
