MODEL 6
REMARK VINA RESULT:    -7.290      6.554      9.992
REMARK INTER + INTRA:          -9.803
REMARK INTER:                  -9.668
REMARK INTRA:                  -0.135
REMARK UNBOUND:                -0.809
REMARK  Name = ligand_1
REMARK                            x       y       z     vdW  Elec       q    Type
REMARK                         _______ _______ _______ _____ _____    ______ ____
ROOT
ATOM      2  N   LIG    1       54.624  58.546  38.182  0.00  0.00    -0.305 N 
ATOM      3  C   LIG    1       53.385  58.577  37.412  0.00  0.00    +0.108 C 
ATOM      4  C   LIG    1       53.092  60.022  36.996  0.00  0.00    +0.094 C 
ATOM      5  N   LIG    1       54.264  60.601  36.321  0.00  0.00    -0.270 NA
ATOM     18  C   LIG    1       55.504  60.553  37.085  0.00  0.00    +0.094 C 
ATOM     19  C   LIG    1       55.794  59.111  37.493  0.00  0.00    +0.108 C 
ENDROOT
BRANCH   2   1
ATOM      1  C   LIG    1       54.851  57.366  38.975  0.00  0.00    +0.051 A 
ATOM     20  C   LIG    1       55.579  56.254  38.492  0.00  0.00    +0.031 A 
ATOM     21  C   LIG    1       56.019  56.182  37.173  0.00  0.00    +0.003 A 
ATOM     22  C   LIG    1       56.731  55.074  36.723  0.00  0.00    +0.000 A 
ATOM     23  C   LIG    1       57.014  54.009  37.580  0.00  0.00    +0.002 A 
ATOM     24  C   LIG    1       56.584  54.065  38.901  0.00  0.00    +0.019 A 
ATOM     25  C   LIG    1       55.876  55.177  39.348  0.00  0.00    +0.082 A 
ATOM     26  N   LIG    1       55.464  55.189  40.627  0.00  0.00    -0.241 NA
ATOM     27  C   LIG    1       54.760  56.226  41.127  0.00  0.00    +0.154 A 
ATOM     32  C   LIG    1       54.454  57.335  40.323  0.00  0.00    +0.038 A 
BRANCH  27  28
ATOM     28  C   LIG    1       54.399  56.093  42.581  0.00  0.00    +0.435 C 
ATOM     29  F   LIG    1       53.099  56.265  42.713  0.00  0.00    -0.164 F 
ATOM     30  F   LIG    1       55.063  56.900  43.388  0.00  0.00    -0.164 F 
ATOM     31  F   LIG    1       54.670  54.851  42.921  0.00  0.00    -0.164 F 
ENDBRANCH  27  28
ENDBRANCH   2   1
BRANCH   5   6
ATOM      6  C   LIG    1       53.991  62.016  35.946  0.00  0.00    +0.077 C 
ATOM      7  C   LIG    1       53.312  62.147  34.574  0.00  0.00    +0.044 C 
ATOM      8  C   LIG    1       52.541  63.465  34.648  0.00  0.00    +0.150 C 
ATOM     16  N   LIG    1       52.266  63.640  36.070  0.00  0.00    -0.209 NA
ATOM     17  C   LIG    1       52.976  62.673  36.896  0.00  0.00    +0.105 C 
BRANCH   8   9
ATOM      9  C   LIG    1       51.297  63.485  33.779  0.00  0.00    +0.242 C 
ATOM     10  O   LIG    1       50.679  62.440  33.582  0.00  0.00    -0.273 OA
ATOM     11  N   LIG    1       50.910  64.677  33.303  0.00  0.00    -0.268 N 
ATOM     12  C   LIG    1       51.705  65.883  33.572  0.00  0.00    +0.106 C 
ATOM     13  C   LIG    1       51.071  67.132  32.951  0.00  0.00    +0.081 C 
ATOM     14  S   LIG    1       49.964  66.510  31.775  0.00  0.00    -0.117 S 
ATOM     15  C   LIG    1       49.711  64.906  32.487  0.00  0.00    +0.152 C 
ENDBRANCH   8   9
ENDBRANCH   5   6
TORSDOF 4
ENDMDL
