MODEL 1
REMARK VINA RESULT:    -8.043      0.000      0.000
REMARK INTER + INTRA:         -10.733
REMARK INTER:                  -9.924
REMARK INTRA:                  -0.809
REMARK UNBOUND:                -0.809
REMARK  Name = ligand_1
REMARK                            x       y       z     vdW  Elec       q    Type
REMARK                         _______ _______ _______ _____ _____    ______ ____
ROOT
ATOM      2  N   LIG    1       51.178  62.660  37.436  0.00  0.00    -0.305 N 
ATOM      3  C   LIG    1       50.815  63.414  38.632  0.00  0.00    +0.108 C 
ATOM      4  C   LIG    1       49.638  62.718  39.324  0.00  0.00    +0.094 C 
ATOM      5  N   LIG    1       49.953  61.299  39.549  0.00  0.00    -0.270 NA
ATOM     18  C   LIG    1       50.331  60.551  38.357  0.00  0.00    +0.094 C 
ATOM     19  C   LIG    1       51.507  61.246  37.673  0.00  0.00    +0.108 C 
ENDROOT
BRANCH   2   1
ATOM      1  C   LIG    1       51.981  63.354  36.466  0.00  0.00    +0.051 A 
ATOM     20  C   LIG    1       51.424  63.983  35.328  0.00  0.00    +0.031 A 
ATOM     21  C   LIG    1       50.074  63.863  35.011  0.00  0.00    +0.003 A 
ATOM     22  C   LIG    1       49.552  64.488  33.882  0.00  0.00    +0.000 A 
ATOM     23  C   LIG    1       50.369  65.243  33.040  0.00  0.00    +0.002 A 
ATOM     24  C   LIG    1       51.721  65.376  33.343  0.00  0.00    +0.019 A 
ATOM     25  C   LIG    1       52.237  64.752  34.474  0.00  0.00    +0.082 A 
ATOM     26  N   LIG    1       53.550  64.890  34.725  0.00  0.00    -0.241 NA
ATOM     27  C   LIG    1       54.125  64.302  35.795  0.00  0.00    +0.154 A 
ATOM     32  C   LIG    1       53.357  63.541  36.690  0.00  0.00    +0.038 A 
BRANCH  27  28
ATOM     28  C   LIG    1       55.596  64.579  35.946  0.00  0.00    +0.435 C 
ATOM     29  F   LIG    1       56.266  63.493  35.617  0.00  0.00    -0.164 F 
ATOM     30  F   LIG    1       55.956  65.007  37.141  0.00  0.00    -0.164 F 
ATOM     31  F   LIG    1       55.893  65.509  35.064  0.00  0.00    -0.164 F 
ENDBRANCH  27  28
ENDBRANCH   2   1
BRANCH   5   6
ATOM      6  C   LIG    1       48.796  60.615  40.191  0.00  0.00    +0.077 C 
ATOM      7  C   LIG    1       48.494  59.245  39.566  0.00  0.00    +0.044 C 
ATOM      8  C   LIG    1       47.810  58.453  40.681  0.00  0.00    +0.150 C 
ATOM     16  N   LIG    1       48.322  59.049  41.910  0.00  0.00    -0.209 NA
ATOM     17  C   LIG    1       49.083  60.266  41.661  0.00  0.00    +0.105 C 
BRANCH   8   9
ATOM      9  C   LIG    1       48.042  56.956  40.586  0.00  0.00    +0.242 C 
ATOM     10  O   LIG    1       49.062  56.469  41.072  0.00  0.00    -0.273 OA
ATOM     11  N   LIG    1       47.077  56.229  40.006  0.00  0.00    -0.268 N 
ATOM     12  C   LIG    1       45.889  56.881  39.438  0.00  0.00    +0.106 C 
ATOM     13  C   LIG    1       44.911  55.862  38.843  0.00  0.00    +0.081 C 
ATOM     14  S   LIG    1       45.858  54.428  38.643  0.00  0.00    -0.117 S 
ATOM     15  C   LIG    1       47.097  54.767  39.864  0.00  0.00    +0.152 C 
ENDBRANCH   8   9
ENDBRANCH   5   6
TORSDOF 4
ENDMDL
