MODEL 6
REMARK VINA RESULT:    -7.360      5.522      7.109
REMARK INTER + INTRA:          -9.783
REMARK INTER:                  -8.854
REMARK INTRA:                  -0.929
REMARK UNBOUND:                -0.702
REMARK  Name = ligand_1
REMARK                            x       y       z     vdW  Elec       q    Type
REMARK                         _______ _______ _______ _____ _____    ______ ____
ROOT
ATOM      2  N   LIG    1       52.428  58.055  38.822  0.00  0.00    -0.305 N 
ATOM      3  C   LIG    1       51.839  56.727  38.669  0.00  0.00    +0.108 C 
ATOM      4  C   LIG    1       52.726  55.892  37.739  0.00  0.00    +0.094 C 
ATOM      5  N   LIG    1       54.117  55.911  38.217  0.00  0.00    -0.270 NA
ATOM     18  C   LIG    1       54.697  57.238  38.384  0.00  0.00    +0.094 C 
ATOM     19  C   LIG    1       53.813  58.064  39.316  0.00  0.00    +0.108 C 
ENDROOT
BRANCH   2   1
ATOM      1  C   LIG    1       51.556  59.082  39.327  0.00  0.00    +0.051 A 
ATOM     20  C   LIG    1       51.365  60.314  38.659  0.00  0.00    +0.031 A 
ATOM     21  C   LIG    1       52.106  60.659  37.532  0.00  0.00    +0.003 A 
ATOM     22  C   LIG    1       51.902  61.880  36.896  0.00  0.00    +0.000 A 
ATOM     23  C   LIG    1       50.956  62.788  37.376  0.00  0.00    +0.002 A 
ATOM     24  C   LIG    1       50.206  62.458  38.500  0.00  0.00    +0.019 A 
ATOM     25  C   LIG    1       50.411  61.235  39.131  0.00  0.00    +0.082 A 
ATOM     26  N   LIG    1       49.678  60.958  40.223  0.00  0.00    -0.241 NA
ATOM     27  C   LIG    1       49.832  59.799  40.895  0.00  0.00    +0.154 A 
ATOM     32  C   LIG    1       50.756  58.836  40.457  0.00  0.00    +0.038 A 
BRANCH  27  28
ATOM     28  C   LIG    1       48.917  59.635  42.078  0.00  0.00    +0.435 C 
ATOM     29  F   LIG    1       47.790  60.274  41.833  0.00  0.00    -0.164 F 
ATOM     30  F   LIG    1       49.433  60.020  43.230  0.00  0.00    -0.164 F 
ATOM     31  F   LIG    1       48.635  58.352  42.157  0.00  0.00    -0.164 F 
ENDBRANCH  27  28
ENDBRANCH   2   1
BRANCH   5   6
ATOM      6  C   LIG    1       54.984  55.127  37.294  0.00  0.00    +0.077 C 
ATOM      7  C   LIG    1       55.181  55.814  35.934  0.00  0.00    +0.044 C 
ATOM      8  C   LIG    1       56.521  55.285  35.423  0.00  0.00    +0.150 C 
ATOM     16  N   LIG    1       57.256  54.942  36.635  0.00  0.00    -0.209 NA
ATOM     17  C   LIG    1       56.421  55.003  37.828  0.00  0.00    +0.105 C 
BRANCH   8   9
ATOM      9  C   LIG    1       57.251  56.265  34.524  0.00  0.00    +0.242 C 
ATOM     10  O   LIG    1       57.524  57.388  34.946  0.00  0.00    -0.273 OA
ATOM     11  N   LIG    1       57.606  55.824  33.309  0.00  0.00    -0.268 N 
ATOM     12  C   LIG    1       57.237  54.472  32.868  0.00  0.00    +0.106 C 
ATOM     13  C   LIG    1       57.757  54.171  31.458  0.00  0.00    +0.081 C 
ATOM     14  S   LIG    1       58.119  55.728  30.796  0.00  0.00    -0.117 S 
ATOM     15  C   LIG    1       58.358  56.605  32.318  0.00  0.00    +0.152 C 
ENDBRANCH   8   9
ENDBRANCH   5   6
TORSDOF 4
ENDMDL
