MODEL 1
REMARK VINA RESULT:    -8.309      0.000      0.000
REMARK INTER + INTRA:         -11.033
REMARK INTER:                 -10.252
REMARK INTRA:                  -0.781
REMARK UNBOUND:                -0.781
REMARK  Name = ligand_1
REMARK                            x       y       z     vdW  Elec       q    Type
REMARK                         _______ _______ _______ _____ _____    ______ ____
ROOT
ATOM      2  N   LIG    1       50.187  61.698  38.442  0.00  0.00    -0.305 N 
ATOM      3  C   LIG    1       50.143  63.111  38.804  0.00  0.00    +0.108 C 
ATOM      4  C   LIG    1       51.364  63.818  38.205  0.00  0.00    +0.094 C 
ATOM      5  N   LIG    1       51.449  63.541  36.762  0.00  0.00    -0.270 NA
ATOM     18  C   LIG    1       51.476  62.130  36.402  0.00  0.00    +0.094 C 
ATOM     19  C   LIG    1       50.256  61.431  36.997  0.00  0.00    +0.108 C 
ENDROOT
BRANCH   2   1
ATOM      1  C   LIG    1       49.359  60.816  39.222  0.00  0.00    +0.051 A 
ATOM     20  C   LIG    1       49.890  59.745  39.978  0.00  0.00    +0.031 A 
ATOM     21  C   LIG    1       51.239  59.402  39.917  0.00  0.00    +0.003 A 
ATOM     22  C   LIG    1       51.735  58.340  40.668  0.00  0.00    +0.000 A 
ATOM     23  C   LIG    1       50.893  57.593  41.494  0.00  0.00    +0.002 A 
ATOM     24  C   LIG    1       49.544  57.924  41.569  0.00  0.00    +0.019 A 
ATOM     25  C   LIG    1       49.053  58.988  40.818  0.00  0.00    +0.082 A 
ATOM     26  N   LIG    1       47.742  59.268  40.905  0.00  0.00    -0.241 NA
ATOM     27  C   LIG    1       47.192  60.276  40.197  0.00  0.00    +0.154 A 
ATOM     32  C   LIG    1       47.984  61.075  39.358  0.00  0.00    +0.038 A 
BRANCH  27  28
ATOM     28  C   LIG    1       45.718  60.472  40.428  0.00  0.00    +0.435 C 
ATOM     29  F   LIG    1       45.516  61.706  40.843  0.00  0.00    -0.164 F 
ATOM     30  F   LIG    1       45.171  59.603  41.258  0.00  0.00    -0.164 F 
ATOM     31  F   LIG    1       45.136  60.349  39.255  0.00  0.00    -0.164 F 
ENDBRANCH  27  28
ENDBRANCH   2   1
BRANCH   5   6
ATOM      6  C   LIG    1       52.654  64.201  36.186  0.00  0.00    +0.077 C 
ATOM      7  C   LIG    1       53.915  63.982  37.035  0.00  0.00    +0.044 C 
ATOM      8  C   LIG    1       55.075  64.107  36.047  0.00  0.00    +0.150 C 
ATOM     16  N   LIG    1       54.493  63.730  34.763  0.00  0.00    -0.209 NA
ATOM     17  C   LIG    1       53.044  63.595  34.828  0.00  0.00    +0.105 C 
BRANCH   8   9
ATOM      9  C   LIG    1       56.288  63.282  36.433  0.00  0.00    +0.242 C 
ATOM     10  O   LIG    1       56.436  62.160  35.950  0.00  0.00    -0.273 OA
ATOM     11  N   LIG    1       57.172  63.856  37.261  0.00  0.00    -0.268 N 
ATOM     12  C   LIG    1       56.924  65.197  37.806  0.00  0.00    +0.106 C 
ATOM     13  C   LIG    1       58.068  65.663  38.712  0.00  0.00    +0.081 C 
ATOM     14  S   LIG    1       58.920  64.210  39.107  0.00  0.00    -0.117 S 
ATOM     15  C   LIG    1       58.427  63.237  37.709  0.00  0.00    +0.152 C 
ENDBRANCH   8   9
ENDBRANCH   5   6
TORSDOF 4
ENDMDL
