MODEL 5
REMARK VINA RESULT:    -7.690      6.577      9.315
REMARK INTER + INTRA:         -10.172
REMARK INTER:                  -9.220
REMARK INTRA:                  -0.952
REMARK UNBOUND:                -0.684
REMARK  Name = ligand_1
REMARK                            x       y       z     vdW  Elec       q    Type
REMARK                         _______ _______ _______ _____ _____    ______ ____
ROOT
ATOM      2  N   LIG    1       52.489  63.306  35.526  0.00  0.00    -0.305 N 
ATOM      3  C   LIG    1       52.596  64.236  34.405  0.00  0.00    +0.108 C 
ATOM      4  C   LIG    1       51.326  64.140  33.554  0.00  0.00    +0.094 C 
ATOM      5  N   LIG    1       50.136  64.313  34.402  0.00  0.00    -0.270 NA
ATOM     18  C   LIG    1       50.040  63.395  35.529  0.00  0.00    +0.094 C 
ATOM     19  C   LIG    1       51.306  63.498  36.377  0.00  0.00    +0.108 C 
ENDROOT
BRANCH   2   1
ATOM      1  C   LIG    1       53.718  62.975  36.196  0.00  0.00    +0.051 A 
ATOM     20  C   LIG    1       54.160  61.641  36.357  0.00  0.00    +0.031 A 
ATOM     21  C   LIG    1       53.370  60.556  35.985  0.00  0.00    +0.003 A 
ATOM     22  C   LIG    1       53.827  59.253  36.159  0.00  0.00    +0.000 A 
ATOM     23  C   LIG    1       55.083  59.004  36.715  0.00  0.00    +0.002 A 
ATOM     24  C   LIG    1       55.886  60.076  37.091  0.00  0.00    +0.019 A 
ATOM     25  C   LIG    1       55.427  61.376  36.912  0.00  0.00    +0.082 A 
ATOM     26  N   LIG    1       56.225  62.385  37.301  0.00  0.00    -0.241 NA
ATOM     27  C   LIG    1       55.841  63.672  37.172  0.00  0.00    +0.154 A 
ATOM     32  C   LIG    1       54.596  63.993  36.607  0.00  0.00    +0.038 A 
BRANCH  27  28
ATOM     28  C   LIG    1       56.861  64.679  37.631  0.00  0.00    +0.435 C 
ATOM     29  F   LIG    1       56.727  65.775  36.912  0.00  0.00    -0.164 F 
ATOM     30  F   LIG    1       58.108  64.249  37.603  0.00  0.00    -0.164 F 
ATOM     31  F   LIG    1       56.553  64.981  38.874  0.00  0.00    -0.164 F 
ENDBRANCH  27  28
ENDBRANCH   2   1
BRANCH   5   6
ATOM      6  C   LIG    1       48.900  64.187  33.580  0.00  0.00    +0.077 C 
ATOM      7  C   LIG    1       49.142  63.453  32.252  0.00  0.00    +0.044 C 
ATOM      8  C   LIG    1       47.785  62.848  31.892  0.00  0.00    +0.150 C 
ATOM     16  N   LIG    1       47.118  62.674  33.177  0.00  0.00    -0.209 NA
ATOM     17  C   LIG    1       47.842  63.311  34.269  0.00  0.00    +0.105 C 
BRANCH   8   9
ATOM      9  C   LIG    1       47.892  61.569  31.082  0.00  0.00    +0.242 C 
ATOM     10  O   LIG    1       48.627  60.663  31.473  0.00  0.00    -0.273 OA
ATOM     11  N   LIG    1       47.126  61.481  29.986  0.00  0.00    -0.268 N 
ATOM     12  C   LIG    1       46.279  62.607  29.573  0.00  0.00    +0.106 C 
ATOM     13  C   LIG    1       45.478  62.283  28.307  0.00  0.00    +0.081 C 
ATOM     14  S   LIG    1       46.293  60.919  27.623  0.00  0.00    -0.117 S 
ATOM     15  C   LIG    1       47.055  60.308  29.103  0.00  0.00    +0.152 C 
ENDBRANCH   8   9
ENDBRANCH   5   6
TORSDOF 4
ENDMDL
