MODEL 3
REMARK VINA RESULT:    -7.544      8.561     11.008
REMARK INTER + INTRA:         -10.137
REMARK INTER:                  -9.387
REMARK INTRA:                  -0.750
REMARK UNBOUND:                -0.829
REMARK  Name = ligand_1
REMARK                            x       y       z     vdW  Elec       q    Type
REMARK                         _______ _______ _______ _____ _____    ______ ____
ROOT
ATOM      2  N   LIG    1       55.345  55.751  39.683  0.00  0.00    -0.305 N 
ATOM      3  C   LIG    1       55.861  54.399  39.495  0.00  0.00    +0.108 C 
ATOM      4  C   LIG    1       56.193  54.193  38.013  0.00  0.00    +0.094 C 
ATOM      5  N   LIG    1       57.073  55.272  37.539  0.00  0.00    -0.270 NA
ATOM     18  C   LIG    1       56.564  56.622  37.743  0.00  0.00    +0.094 C 
ATOM     19  C   LIG    1       56.239  56.824  39.221  0.00  0.00    +0.108 C 
ENDROOT
BRANCH   2   1
ATOM      1  C   LIG    1       54.627  55.993  40.906  0.00  0.00    +0.051 A 
ATOM     20  C   LIG    1       53.411  56.714  40.944  0.00  0.00    +0.031 A 
ATOM     21  C   LIG    1       52.895  57.342  39.813  0.00  0.00    +0.003 A 
ATOM     22  C   LIG    1       51.699  58.050  39.878  0.00  0.00    +0.000 A 
ATOM     23  C   LIG    1       50.992  58.151  41.078  0.00  0.00    +0.002 A 
ATOM     24  C   LIG    1       51.492  57.528  42.217  0.00  0.00    +0.019 A 
ATOM     25  C   LIG    1       52.687  56.819  42.146  0.00  0.00    +0.082 A 
ATOM     26  N   LIG    1       53.145  56.244  43.271  0.00  0.00    -0.241 NA
ATOM     27  C   LIG    1       54.304  55.552  43.282  0.00  0.00    +0.154 A 
ATOM     32  C   LIG    1       55.056  55.400  42.106  0.00  0.00    +0.038 A 
BRANCH  27  28
ATOM     28  C   LIG    1       54.660  54.950  44.614  0.00  0.00    +0.435 C 
ATOM     29  F   LIG    1       55.941  54.640  44.609  0.00  0.00    -0.164 F 
ATOM     30  F   LIG    1       53.927  53.909  44.960  0.00  0.00    -0.164 F 
ATOM     31  F   LIG    1       54.486  55.898  45.510  0.00  0.00    -0.164 F 
ENDBRANCH  27  28
ENDBRANCH   2   1
BRANCH   5   6
ATOM      6  C   LIG    1       57.369  55.090  36.090  0.00  0.00    +0.077 C 
ATOM      7  C   LIG    1       56.238  54.373  35.338  0.00  0.00    +0.044 C 
ATOM      8  C   LIG    1       56.373  54.848  33.891  0.00  0.00    +0.150 C 
ATOM     16  N   LIG    1       57.009  56.157  34.002  0.00  0.00    -0.209 NA
ATOM     17  C   LIG    1       57.472  56.436  35.354  0.00  0.00    +0.105 C 
BRANCH   8   9
ATOM      9  C   LIG    1       55.055  54.872  33.139  0.00  0.00    +0.242 C 
ATOM     10  O   LIG    1       54.011  55.090  33.752  0.00  0.00    -0.273 OA
ATOM     11  N   LIG    1       55.112  54.695  31.812  0.00  0.00    -0.268 N 
ATOM     12  C   LIG    1       56.395  54.430  31.147  0.00  0.00    +0.106 C 
ATOM     13  C   LIG    1       56.230  54.278  29.631  0.00  0.00    +0.081 C 
ATOM     14  S   LIG    1       54.539  53.984  29.413  0.00  0.00    -0.117 S 
ATOM     15  C   LIG    1       53.954  54.733  30.909  0.00  0.00    +0.152 C 
ENDBRANCH   8   9
ENDBRANCH   5   6
TORSDOF 4
ENDMDL
