MODEL 2
REMARK VINA RESULT:    -8.036      5.449      9.865
REMARK INTER + INTRA:         -10.624
REMARK INTER:                  -9.899
REMARK INTRA:                  -0.725
REMARK UNBOUND:                -0.709
REMARK  Name = ligand_1
REMARK                            x       y       z     vdW  Elec       q    Type
REMARK                         _______ _______ _______ _____ _____    ______ ____
ROOT
ATOM      2  N   LIG    1       51.125  62.699  37.397  0.00  0.00    -0.305 N 
ATOM      3  C   LIG    1       50.897  63.408  38.653  0.00  0.00    +0.108 C 
ATOM      4  C   LIG    1       49.709  62.767  39.379  0.00  0.00    +0.094 C 
ATOM      5  N   LIG    1       49.918  61.316  39.505  0.00  0.00    -0.270 NA
ATOM     18  C   LIG    1       50.162  60.614  38.252  0.00  0.00    +0.094 C 
ATOM     19  C   LIG    1       51.349  61.253  37.535  0.00  0.00    +0.108 C 
ENDROOT
BRANCH   2   1
ATOM      1  C   LIG    1       51.925  63.385  36.418  0.00  0.00    +0.051 A 
ATOM     20  C   LIG    1       51.361  64.020  35.286  0.00  0.00    +0.031 A 
ATOM     21  C   LIG    1       50.006  63.916  34.986  0.00  0.00    +0.003 A 
ATOM     22  C   LIG    1       49.478  64.548  33.863  0.00  0.00    +0.000 A 
ATOM     23  C   LIG    1       50.294  65.294  33.012  0.00  0.00    +0.002 A 
ATOM     24  C   LIG    1       51.650  65.411  33.298  0.00  0.00    +0.019 A 
ATOM     25  C   LIG    1       52.173  64.780  34.423  0.00  0.00    +0.082 A 
ATOM     26  N   LIG    1       53.491  64.903  34.659  0.00  0.00    -0.241 NA
ATOM     27  C   LIG    1       54.071  64.308  35.722  0.00  0.00    +0.154 A 
ATOM     32  C   LIG    1       53.305  63.555  36.626  0.00  0.00    +0.038 A 
BRANCH  27  28
ATOM     28  C   LIG    1       55.547  64.567  35.855  0.00  0.00    +0.435 C 
ATOM     29  F   LIG    1       56.203  63.504  35.436  0.00  0.00    -0.164 F 
ATOM     30  F   LIG    1       55.938  64.912  37.067  0.00  0.00    -0.164 F 
ATOM     31  F   LIG    1       55.828  65.555  35.032  0.00  0.00    -0.164 F 
ENDBRANCH  27  28
ENDBRANCH   2   1
BRANCH   5   6
ATOM      6  C   LIG    1       48.748  60.689  40.181  0.00  0.00    +0.077 C 
ATOM      7  C   LIG    1       48.375  59.325  39.580  0.00  0.00    +0.044 C 
ATOM      8  C   LIG    1       47.684  58.575  40.719  0.00  0.00    +0.150 C 
ATOM     16  N   LIG    1       48.247  59.165  41.929  0.00  0.00    -0.209 NA
ATOM     17  C   LIG    1       49.052  60.346  41.649  0.00  0.00    +0.105 C 
BRANCH   8   9
ATOM      9  C   LIG    1       47.851  57.070  40.639  0.00  0.00    +0.242 C 
ATOM     10  O   LIG    1       48.779  56.530  41.240  0.00  0.00    -0.273 OA
ATOM     11  N   LIG    1       46.929  56.394  39.938  0.00  0.00    -0.268 N 
ATOM     12  C   LIG    1       45.853  57.107  39.238  0.00  0.00    +0.106 C 
ATOM     13  C   LIG    1       44.905  56.141  38.518  0.00  0.00    +0.081 C 
ATOM     14  S   LIG    1       45.797  54.662  38.420  0.00  0.00    -0.117 S 
ATOM     15  C   LIG    1       46.894  54.934  39.786  0.00  0.00    +0.152 C 
ENDBRANCH   8   9
ENDBRANCH   5   6
TORSDOF 4
ENDMDL
