MODEL 9
REMARK VINA RESULT:    -7.287      5.702      7.573
REMARK INTER + INTRA:          -9.688
REMARK INTER:                  -9.303
REMARK INTRA:                  -0.386
REMARK UNBOUND:                -0.698
REMARK  Name = ligand_1
REMARK                            x       y       z     vdW  Elec       q    Type
REMARK                         _______ _______ _______ _____ _____    ______ ____
ROOT
ATOM      2  N   LIG    1       54.566  58.443  38.050  0.00  0.00    -0.305 N 
ATOM      3  C   LIG    1       53.515  58.275  37.051  0.00  0.00    +0.108 C 
ATOM      4  C   LIG    1       53.099  59.655  36.528  0.00  0.00    +0.094 C 
ATOM      5  N   LIG    1       54.284  60.400  36.075  0.00  0.00    -0.270 NA
ATOM     18  C   LIG    1       55.339  60.552  37.068  0.00  0.00    +0.094 C 
ATOM     19  C   LIG    1       55.753  59.175  37.582  0.00  0.00    +0.108 C 
ENDROOT
BRANCH   2   1
ATOM      1  C   LIG    1       54.802  57.320  38.918  0.00  0.00    +0.051 A 
ATOM     20  C   LIG    1       55.537  56.183  38.508  0.00  0.00    +0.031 A 
ATOM     21  C   LIG    1       55.974  56.026  37.195  0.00  0.00    +0.003 A 
ATOM     22  C   LIG    1       56.691  54.895  36.816  0.00  0.00    +0.000 A 
ATOM     23  C   LIG    1       56.984  53.891  37.740  0.00  0.00    +0.002 A 
ATOM     24  C   LIG    1       56.557  54.032  39.057  0.00  0.00    +0.019 A 
ATOM     25  C   LIG    1       55.843  55.166  39.432  0.00  0.00    +0.082 A 
ATOM     26  N   LIG    1       55.434  55.259  40.708  0.00  0.00    -0.241 NA
ATOM     27  C   LIG    1       54.725  56.323  41.141  0.00  0.00    +0.154 A 
ATOM     32  C   LIG    1       54.409  57.375  40.267  0.00  0.00    +0.038 A 
BRANCH  27  28
ATOM     28  C   LIG    1       54.369  56.284  42.602  0.00  0.00    +0.435 C 
ATOM     29  F   LIG    1       53.089  56.569  42.734  0.00  0.00    -0.164 F 
ATOM     30  F   LIG    1       55.105  57.067  43.368  0.00  0.00    -0.164 F 
ATOM     31  F   LIG    1       54.539  55.040  42.995  0.00  0.00    -0.164 F 
ENDBRANCH  27  28
ENDBRANCH   2   1
BRANCH   5   6
ATOM      6  C   LIG    1       53.883  61.753  35.597  0.00  0.00    +0.077 C 
ATOM      7  C   LIG    1       52.591  61.732  34.766  0.00  0.00    +0.044 C 
ATOM      8  C   LIG    1       51.998  63.131  34.936  0.00  0.00    +0.150 C 
ATOM     16  N   LIG    1       52.509  63.582  36.226  0.00  0.00    -0.209 NA
ATOM     17  C   LIG    1       53.526  62.689  36.764  0.00  0.00    +0.105 C 
BRANCH   8   9
ATOM      9  C   LIG    1       50.485  63.161  34.834  0.00  0.00    +0.242 C 
ATOM     10  O   LIG    1       49.812  62.486  35.612  0.00  0.00    -0.273 OA
ATOM     11  N   LIG    1       49.956  63.975  33.911  0.00  0.00    -0.268 N 
ATOM     12  C   LIG    1       50.823  64.746  33.009  0.00  0.00    +0.106 C 
ATOM     13  C   LIG    1       50.010  65.621  32.049  0.00  0.00    +0.081 C 
ATOM     14  S   LIG    1       48.417  64.946  32.100  0.00  0.00    -0.117 S 
ATOM     15  C   LIG    1       48.517  64.177  33.694  0.00  0.00    +0.152 C 
ENDBRANCH   8   9
ENDBRANCH   5   6
TORSDOF 4
ENDMDL
