MODEL 4
REMARK VINA RESULT:    -6.280      5.651      7.672
REMARK INTER + INTRA:          -8.584
REMARK INTER:                  -7.616
REMARK INTRA:                  -0.968
REMARK UNBOUND:                -0.835
REMARK  Name = ligand_1
REMARK                            x       y       z     vdW  Elec       q    Type
REMARK                         _______ _______ _______ _____ _____    ______ ____
ROOT
ATOM      2  N   LIG    1       52.555  61.883  34.493  0.00  0.00    -0.305 N 
ATOM      3  C   LIG    1       52.991  62.180  33.132  0.00  0.00    +0.108 C 
ATOM      4  C   LIG    1       51.932  61.675  32.147  0.00  0.00    +0.094 C 
ATOM      5  N   LIG    1       50.610  62.204  32.512  0.00  0.00    -0.270 NA
ATOM     18  C   LIG    1       50.183  61.921  33.876  0.00  0.00    +0.094 C 
ATOM     19  C   LIG    1       51.239  62.430  34.855  0.00  0.00    +0.108 C 
ENDROOT
BRANCH   2   1
ATOM      1  C   LIG    1       53.573  61.925  35.510  0.00  0.00    +0.051 A 
ATOM     20  C   LIG    1       53.942  60.787  36.264  0.00  0.00    +0.031 A 
ATOM     21  C   LIG    1       53.256  59.580  36.153  0.00  0.00    +0.003 A 
ATOM     22  C   LIG    1       53.637  58.476  36.910  0.00  0.00    +0.000 A 
ATOM     23  C   LIG    1       54.710  58.554  37.800  0.00  0.00    +0.002 A 
ATOM     24  C   LIG    1       55.408  59.752  37.922  0.00  0.00    +0.019 A 
ATOM     25  C   LIG    1       55.025  60.852  37.160  0.00  0.00    +0.082 A 
ATOM     26  N   LIG    1       55.713  61.996  37.316  0.00  0.00    -0.241 NA
ATOM     27  C   LIG    1       55.391  63.107  36.623  0.00  0.00    +0.154 A 
ATOM     32  C   LIG    1       54.332  63.093  35.701  0.00  0.00    +0.038 A 
BRANCH  27  28
ATOM     28  C   LIG    1       56.276  64.293  36.895  0.00  0.00    +0.435 C 
ATOM     29  F   LIG    1       56.021  64.743  38.107  0.00  0.00    -0.164 F 
ATOM     30  F   LIG    1       56.184  65.264  36.005  0.00  0.00    -0.164 F 
ATOM     31  F   LIG    1       57.513  63.843  36.892  0.00  0.00    -0.164 F 
ENDBRANCH  27  28
ENDBRANCH   2   1
BRANCH   5   6
ATOM      6  C   LIG    1       49.575  61.686  31.574  0.00  0.00    +0.077 C 
ATOM      7  C   LIG    1       50.094  60.543  30.688  0.00  0.00    +0.044 C 
ATOM      8  C   LIG    1       48.847  59.738  30.325  0.00  0.00    +0.150 C 
ATOM     16  N   LIG    1       47.926  59.987  31.428  0.00  0.00    -0.209 NA
ATOM     17  C   LIG    1       48.400  61.035  32.321  0.00  0.00    +0.105 C 
BRANCH   8   9
ATOM      9  C   LIG    1       49.129  58.266  30.086  0.00  0.00    +0.242 C 
ATOM     10  O   LIG    1       49.894  57.665  30.840  0.00  0.00    -0.273 OA
ATOM     11  N   LIG    1       48.477  57.681  29.072  0.00  0.00    -0.268 N 
ATOM     12  C   LIG    1       47.585  58.464  28.206  0.00  0.00    +0.106 C 
ATOM     13  C   LIG    1       46.932  57.594  27.126  0.00  0.00    +0.081 C 
ATOM     14  S   LIG    1       47.913  56.169  27.075  0.00  0.00    -0.117 S 
ATOM     15  C   LIG    1       48.580  56.260  28.715  0.00  0.00    +0.152 C 
ENDBRANCH   8   9
ENDBRANCH   5   6
TORSDOF 4
ENDMDL
