MODEL 2
REMARK VINA RESULT:    -8.177      5.447      9.881
REMARK INTER + INTRA:         -10.792
REMARK INTER:                  -9.941
REMARK INTRA:                  -0.851
REMARK UNBOUND:                -0.702
REMARK  Name = ligand_1
REMARK                            x       y       z     vdW  Elec       q    Type
REMARK                         _______ _______ _______ _____ _____    ______ ____
ROOT
ATOM      2  N   LIG    1       51.244  62.622  37.442  0.00  0.00    -0.305 N 
ATOM      3  C   LIG    1       50.836  63.361  38.633  0.00  0.00    +0.108 C 
ATOM      4  C   LIG    1       49.655  62.639  39.289  0.00  0.00    +0.094 C 
ATOM      5  N   LIG    1       49.989  61.224  39.512  0.00  0.00    -0.270 NA
ATOM     18  C   LIG    1       50.412  60.492  38.326  0.00  0.00    +0.094 C 
ATOM     19  C   LIG    1       51.593  61.213  37.679  0.00  0.00    +0.108 C 
ENDROOT
BRANCH   2   1
ATOM      1  C   LIG    1       52.060  63.338  36.498  0.00  0.00    +0.051 A 
ATOM     20  C   LIG    1       51.517  63.997  35.370  0.00  0.00    +0.031 A 
ATOM     21  C   LIG    1       50.169  63.889  35.036  0.00  0.00    +0.003 A 
ATOM     22  C   LIG    1       49.661  64.543  33.918  0.00  0.00    +0.000 A 
ATOM     23  C   LIG    1       50.490  65.317  33.104  0.00  0.00    +0.002 A 
ATOM     24  C   LIG    1       51.838  65.438  33.424  0.00  0.00    +0.019 A 
ATOM     25  C   LIG    1       52.341  64.784  34.545  0.00  0.00    +0.082 A 
ATOM     26  N   LIG    1       53.651  64.912  34.813  0.00  0.00    -0.241 NA
ATOM     27  C   LIG    1       54.213  64.296  35.874  0.00  0.00    +0.154 A 
ATOM     32  C   LIG    1       53.433  63.515  36.742  0.00  0.00    +0.038 A 
BRANCH  27  28
ATOM     28  C   LIG    1       55.683  64.564  36.047  0.00  0.00    +0.435 C 
ATOM     29  F   LIG    1       56.359  63.543  35.562  0.00  0.00    -0.164 F 
ATOM     30  F   LIG    1       56.052  64.824  37.287  0.00  0.00    -0.164 F 
ATOM     31  F   LIG    1       55.961  65.613  35.303  0.00  0.00    -0.164 F 
ENDBRANCH  27  28
ENDBRANCH   2   1
BRANCH   5   6
ATOM      6  C   LIG    1       48.829  60.514  40.120  0.00  0.00    +0.077 C 
ATOM      7  C   LIG    1       48.570  59.142  39.479  0.00  0.00    +0.044 C 
ATOM      8  C   LIG    1       47.872  58.331  40.571  0.00  0.00    +0.150 C 
ATOM     16  N   LIG    1       48.339  58.930  41.816  0.00  0.00    -0.209 NA
ATOM     17  C   LIG    1       49.082  60.163  41.595  0.00  0.00    +0.105 C 
BRANCH   8   9
ATOM      9  C   LIG    1       48.135  56.839  40.475  0.00  0.00    +0.242 C 
ATOM     10  O   LIG    1       49.202  56.385  40.884  0.00  0.00    -0.273 OA
ATOM     11  N   LIG    1       47.147  56.081  39.981  0.00  0.00    -0.268 N 
ATOM     12  C   LIG    1       45.901  56.695  39.502  0.00  0.00    +0.106 C 
ATOM     13  C   LIG    1       44.906  55.644  38.997  0.00  0.00    +0.081 C 
ATOM     14  S   LIG    1       45.871  54.231  38.739  0.00  0.00    -0.117 S 
ATOM     15  C   LIG    1       47.194  54.618  39.855  0.00  0.00    +0.152 C 
ENDBRANCH   8   9
ENDBRANCH   5   6
TORSDOF 4
ENDMDL
