MODEL 1
REMARK VINA RESULT:    -8.108      0.000      0.000
REMARK INTER + INTRA:         -10.833
REMARK INTER:                 -10.004
REMARK INTRA:                  -0.829
REMARK UNBOUND:                -0.829
REMARK  Name = ligand_1
REMARK                            x       y       z     vdW  Elec       q    Type
REMARK                         _______ _______ _______ _____ _____    ______ ____
ROOT
ATOM      2  N   LIG    1       51.169  62.571  37.523  0.00  0.00    -0.305 N 
ATOM      3  C   LIG    1       50.737  63.339  38.687  0.00  0.00    +0.108 C 
ATOM      4  C   LIG    1       49.577  62.604  39.367  0.00  0.00    +0.094 C 
ATOM      5  N   LIG    1       49.955  61.209  39.640  0.00  0.00    -0.270 NA
ATOM     18  C   LIG    1       50.402  60.449  38.481  0.00  0.00    +0.094 C 
ATOM     19  C   LIG    1       51.561  61.183  37.809  0.00  0.00    +0.108 C 
ENDROOT
BRANCH   2   1
ATOM      1  C   LIG    1       51.964  63.279  36.555  0.00  0.00    +0.051 A 
ATOM     20  C   LIG    1       51.396  63.930  35.435  0.00  0.00    +0.031 A 
ATOM     21  C   LIG    1       50.041  63.823  35.133  0.00  0.00    +0.003 A 
ATOM     22  C   LIG    1       49.508  64.471  34.023  0.00  0.00    +0.000 A 
ATOM     23  C   LIG    1       50.319  65.237  33.184  0.00  0.00    +0.002 A 
ATOM     24  C   LIG    1       51.675  65.356  33.471  0.00  0.00    +0.019 A 
ATOM     25  C   LIG    1       52.202  64.710  34.585  0.00  0.00    +0.082 A 
ATOM     26  N   LIG    1       53.519  64.837  34.821  0.00  0.00    -0.241 NA
ATOM     27  C   LIG    1       54.104  64.227  35.874  0.00  0.00    +0.154 A 
ATOM     32  C   LIG    1       53.343  63.454  36.765  0.00  0.00    +0.038 A 
BRANCH  27  28
ATOM     28  C   LIG    1       55.578  64.493  36.010  0.00  0.00    +0.435 C 
ATOM     29  F   LIG    1       56.240  63.435  35.587  0.00  0.00    -0.164 F 
ATOM     30  F   LIG    1       55.966  64.834  37.225  0.00  0.00    -0.164 F 
ATOM     31  F   LIG    1       55.856  65.486  35.192  0.00  0.00    -0.164 F 
ENDBRANCH  27  28
ENDBRANCH   2   1
BRANCH   5   6
ATOM      6  C   LIG    1       48.816  60.486  40.272  0.00  0.00    +0.077 C 
ATOM      7  C   LIG    1       48.535  59.128  39.611  0.00  0.00    +0.044 C 
ATOM      8  C   LIG    1       47.874  58.292  40.708  0.00  0.00    +0.150 C 
ATOM     16  N   LIG    1       48.384  58.865  41.949  0.00  0.00    -0.209 NA
ATOM     17  C   LIG    1       49.119  60.102  41.729  0.00  0.00    +0.105 C 
BRANCH   8   9
ATOM      9  C   LIG    1       48.134  56.804  40.570  0.00  0.00    +0.242 C 
ATOM     10  O   LIG    1       49.199  56.335  40.969  0.00  0.00    -0.273 OA
ATOM     11  N   LIG    1       47.145  56.062  40.052  0.00  0.00    -0.268 N 
ATOM     12  C   LIG    1       45.902  56.692  39.588  0.00  0.00    +0.106 C 
ATOM     13  C   LIG    1       44.905  55.659  39.052  0.00  0.00    +0.081 C 
ATOM     14  S   LIG    1       45.868  54.251  38.756  0.00  0.00    -0.117 S 
ATOM     15  C   LIG    1       47.189  54.603  39.885  0.00  0.00    +0.152 C 
ENDBRANCH   8   9
ENDBRANCH   5   6
TORSDOF 4
ENDMDL
