MODEL 4
REMARK VINA RESULT:    -7.631      4.572      8.753
REMARK INTER + INTRA:         -10.123
REMARK INTER:                  -9.369
REMARK INTRA:                  -0.754
REMARK UNBOUND:                -0.707
REMARK  Name = ligand_1
REMARK                            x       y       z     vdW  Elec       q    Type
REMARK                         _______ _______ _______ _____ _____    ______ ____
ROOT
ATOM      2  N   LIG    1       50.838  62.981  36.735  0.00  0.00    -0.305 N 
ATOM      3  C   LIG    1       49.589  62.426  36.221  0.00  0.00    +0.108 C 
ATOM      4  C   LIG    1       49.161  61.253  37.108  0.00  0.00    +0.094 C 
ATOM      5  N   LIG    1       49.129  61.672  38.518  0.00  0.00    -0.270 NA
ATOM     18  C   LIG    1       50.371  62.241  39.025  0.00  0.00    +0.094 C 
ATOM     19  C   LIG    1       50.791  63.413  38.140  0.00  0.00    +0.108 C 
ENDROOT
BRANCH   2   1
ATOM      1  C   LIG    1       51.583  63.814  35.829  0.00  0.00    +0.051 A 
ATOM     20  C   LIG    1       52.994  63.768  35.741  0.00  0.00    +0.031 A 
ATOM     21  C   LIG    1       53.759  63.000  36.615  0.00  0.00    +0.003 A 
ATOM     22  C   LIG    1       55.147  62.976  36.510  0.00  0.00    +0.000 A 
ATOM     23  C   LIG    1       55.803  63.725  35.531  0.00  0.00    +0.002 A 
ATOM     24  C   LIG    1       55.054  64.496  34.648  0.00  0.00    +0.019 A 
ATOM     25  C   LIG    1       53.667  64.514  34.755  0.00  0.00    +0.082 A 
ATOM     26  N   LIG    1       52.979  65.283  33.894  0.00  0.00    -0.241 NA
ATOM     27  C   LIG    1       51.633  65.362  33.947  0.00  0.00    +0.154 A 
ATOM     32  C   LIG    1       50.910  64.623  34.897  0.00  0.00    +0.038 A 
BRANCH  27  28
ATOM     28  C   LIG    1       51.017  66.245  32.896  0.00  0.00    +0.435 C 
ATOM     29  F   LIG    1       51.102  67.499  33.294  0.00  0.00    -0.164 F 
ATOM     30  F   LIG    1       49.773  65.937  32.579  0.00  0.00    -0.164 F 
ATOM     31  F   LIG    1       51.763  66.120  31.820  0.00  0.00    -0.164 F 
ENDBRANCH  27  28
ENDBRANCH   2   1
BRANCH   5   6
ATOM      6  C   LIG    1       48.745  60.523  39.384  0.00  0.00    +0.077 C 
ATOM      7  C   LIG    1       49.683  59.317  39.222  0.00  0.00    +0.044 C 
ATOM      8  C   LIG    1       49.585  58.569  40.552  0.00  0.00    +0.150 C 
ATOM     16  N   LIG    1       49.223  59.601  41.517  0.00  0.00    -0.209 NA
ATOM     17  C   LIG    1       48.877  60.863  40.877  0.00  0.00    +0.105 C 
BRANCH   8   9
ATOM      9  C   LIG    1       50.851  57.814  40.913  0.00  0.00    +0.242 C 
ATOM     10  O   LIG    1       51.947  58.303  40.642  0.00  0.00    -0.273 OA
ATOM     11  N   LIG    1       50.698  56.652  41.563  0.00  0.00    -0.268 N 
ATOM     12  C   LIG    1       49.357  56.124  41.845  0.00  0.00    +0.106 C 
ATOM     13  C   LIG    1       49.417  54.797  42.609  0.00  0.00    +0.081 C 
ATOM     14  S   LIG    1       51.037  54.238  42.369  0.00  0.00    -0.117 S 
ATOM     15  C   LIG    1       51.800  55.803  42.037  0.00  0.00    +0.152 C 
ENDBRANCH   8   9
ENDBRANCH   5   6
TORSDOF 4
ENDMDL
