MODEL 8
REMARK VINA RESULT:    -7.425      5.666      7.369
REMARK INTER + INTRA:          -9.942
REMARK INTER:                  -9.850
REMARK INTRA:                  -0.092
REMARK UNBOUND:                -0.781
REMARK  Name = ligand_1
REMARK                            x       y       z     vdW  Elec       q    Type
REMARK                         _______ _______ _______ _____ _____    ______ ____
ROOT
ATOM      2  N   LIG    1       54.651  58.342  38.302  0.00  0.00    -0.305 N 
ATOM      3  C   LIG    1       53.381  58.392  37.585  0.00  0.00    +0.108 C 
ATOM      4  C   LIG    1       53.120  59.832  37.131  0.00  0.00    +0.094 C 
ATOM      5  N   LIG    1       54.282  60.345  36.388  0.00  0.00    -0.270 NA
ATOM     18  C   LIG    1       55.551  60.278  37.099  0.00  0.00    +0.094 C 
ATOM     19  C   LIG    1       55.809  58.841  37.545  0.00  0.00    +0.108 C 
ENDROOT
BRANCH   2   1
ATOM      1  C   LIG    1       54.871  57.182  39.125  0.00  0.00    +0.051 A 
ATOM     20  C   LIG    1       55.570  56.043  38.663  0.00  0.00    +0.031 A 
ATOM     21  C   LIG    1       55.985  55.924  37.339  0.00  0.00    +0.003 A 
ATOM     22  C   LIG    1       56.668  54.790  36.909  0.00  0.00    +0.000 A 
ATOM     23  C   LIG    1       56.948  53.746  37.793  0.00  0.00    +0.002 A 
ATOM     24  C   LIG    1       56.543  53.849  39.119  0.00  0.00    +0.019 A 
ATOM     25  C   LIG    1       55.863  54.986  39.545  0.00  0.00    +0.082 A 
ATOM     26  N   LIG    1       55.475  55.043  40.831  0.00  0.00    -0.241 NA
ATOM     27  C   LIG    1       54.799  56.107  41.312  0.00  0.00    +0.154 A 
ATOM     32  C   LIG    1       54.498  57.198  40.481  0.00  0.00    +0.038 A 
BRANCH  27  28
ATOM     28  C   LIG    1       54.463  56.024  42.776  0.00  0.00    +0.435 C 
ATOM     29  F   LIG    1       55.111  55.005  43.302  0.00  0.00    -0.164 F 
ATOM     30  F   LIG    1       53.172  55.946  43.040  0.00  0.00    -0.164 F 
ATOM     31  F   LIG    1       54.935  57.121  43.330  0.00  0.00    -0.164 F 
ENDBRANCH  27  28
ENDBRANCH   2   1
BRANCH   5   6
ATOM      6  C   LIG    1       54.042  61.756  35.975  0.00  0.00    +0.077 C 
ATOM      7  C   LIG    1       53.368  61.866  34.598  0.00  0.00    +0.044 C 
ATOM      8  C   LIG    1       52.628  63.203  34.636  0.00  0.00    +0.150 C 
ATOM     16  N   LIG    1       52.354  63.421  36.052  0.00  0.00    -0.209 NA
ATOM     17  C   LIG    1       53.041  62.461  36.905  0.00  0.00    +0.105 C 
BRANCH   8   9
ATOM      9  C   LIG    1       51.387  63.229  33.763  0.00  0.00    +0.242 C 
ATOM     10  O   LIG    1       50.760  62.188  33.569  0.00  0.00    -0.273 OA
ATOM     11  N   LIG    1       51.011  64.422  33.281  0.00  0.00    -0.268 N 
ATOM     12  C   LIG    1       51.814  65.623  33.546  0.00  0.00    +0.106 C 
ATOM     13  C   LIG    1       51.192  66.874  32.917  0.00  0.00    +0.081 C 
ATOM     14  S   LIG    1       50.083  66.255  31.741  0.00  0.00    -0.117 S 
ATOM     15  C   LIG    1       49.815  64.656  32.460  0.00  0.00    +0.152 C 
ENDBRANCH   8   9
ENDBRANCH   5   6
TORSDOF 4
ENDMDL
