MODEL 9
REMARK VINA RESULT:    -7.301      5.311      6.890
REMARK INTER + INTRA:          -9.717
REMARK INTER:                  -9.330
REMARK INTRA:                  -0.387
REMARK UNBOUND:                -0.709
REMARK  Name = ligand_1
REMARK                            x       y       z     vdW  Elec       q    Type
REMARK                         _______ _______ _______ _____ _____    ______ ____
ROOT
ATOM      2  N   LIG    1       53.786  59.003  38.260  0.00  0.00    -0.305 N 
ATOM      3  C   LIG    1       52.927  58.837  37.091  0.00  0.00    +0.108 C 
ATOM      4  C   LIG    1       52.838  60.173  36.345  0.00  0.00    +0.094 C 
ATOM      5  N   LIG    1       54.187  60.686  36.065  0.00  0.00    -0.270 NA
ATOM     18  C   LIG    1       55.048  60.834  37.231  0.00  0.00    +0.094 C 
ATOM     19  C   LIG    1       55.138  59.500  37.969  0.00  0.00    +0.108 C 
ENDROOT
BRANCH   2   1
ATOM      1  C   LIG    1       53.676  57.990  39.277  0.00  0.00    +0.051 A 
ATOM     20  C   LIG    1       52.590  57.935  40.180  0.00  0.00    +0.031 A 
ATOM     21  C   LIG    1       51.618  58.931  40.221  0.00  0.00    +0.003 A 
ATOM     22  C   LIG    1       50.561  58.855  41.124  0.00  0.00    +0.000 A 
ATOM     23  C   LIG    1       50.454  57.782  42.011  0.00  0.00    +0.002 A 
ATOM     24  C   LIG    1       51.415  56.777  41.982  0.00  0.00    +0.019 A 
ATOM     25  C   LIG    1       52.468  56.856  41.076  0.00  0.00    +0.082 A 
ATOM     26  N   LIG    1       53.385  55.873  41.089  0.00  0.00    -0.241 NA
ATOM     27  C   LIG    1       54.441  55.890  40.249  0.00  0.00    +0.154 A 
ATOM     32  C   LIG    1       54.600  56.932  39.322  0.00  0.00    +0.038 A 
BRANCH  27  28
ATOM     28  C   LIG    1       55.357  54.703  40.374  0.00  0.00    +0.435 C 
ATOM     29  F   LIG    1       55.561  54.458  41.653  0.00  0.00    -0.164 F 
ATOM     30  F   LIG    1       56.504  54.824  39.732  0.00  0.00    -0.164 F 
ATOM     31  F   LIG    1       54.707  53.675  39.873  0.00  0.00    -0.164 F 
ENDBRANCH  27  28
ENDBRANCH   2   1
BRANCH   5   6
ATOM      6  C   LIG    1       54.100  62.000  35.369  0.00  0.00    +0.077 C 
ATOM      7  C   LIG    1       53.156  61.969  34.157  0.00  0.00    +0.044 C 
ATOM      8  C   LIG    1       52.680  63.414  34.000  0.00  0.00    +0.150 C 
ATOM     16  N   LIG    1       52.781  63.972  35.344  0.00  0.00    -0.209 NA
ATOM     17  C   LIG    1       53.474  63.081  36.265  0.00  0.00    +0.105 C 
BRANCH   8   9
ATOM      9  C   LIG    1       51.294  63.529  33.394  0.00  0.00    +0.242 C 
ATOM     10  O   LIG    1       50.597  62.521  33.279  0.00  0.00    -0.273 OA
ATOM     11  N   LIG    1       50.882  64.758  33.053  0.00  0.00    -0.268 N 
ATOM     12  C   LIG    1       51.774  65.915  33.211  0.00  0.00    +0.106 C 
ATOM     13  C   LIG    1       51.095  67.219  32.778  0.00  0.00    +0.081 C 
ATOM     14  S   LIG    1       49.750  66.703  31.818  0.00  0.00    -0.117 S 
ATOM     15  C   LIG    1       49.560  65.077  32.499  0.00  0.00    +0.152 C 
ENDBRANCH   8   9
ENDBRANCH   5   6
TORSDOF 4
ENDMDL
