MODEL 9
REMARK VINA RESULT:    -6.862      5.523      8.541
REMARK INTER + INTRA:          -9.173
REMARK INTER:                  -8.470
REMARK INTRA:                  -0.703
REMARK UNBOUND:                -0.707
REMARK  Name = ligand_1
REMARK                            x       y       z     vdW  Elec       q    Type
REMARK                         _______ _______ _______ _____ _____    ______ ____
ROOT
ATOM      2  N   LIG    1       49.986  62.218  35.828  0.00  0.00    -0.305 N 
ATOM      3  C   LIG    1       49.900  62.686  37.207  0.00  0.00    +0.108 C 
ATOM      4  C   LIG    1       49.757  61.477  38.137  0.00  0.00    +0.094 C 
ATOM      5  N   LIG    1       50.830  60.506  37.870  0.00  0.00    -0.270 NA
ATOM     18  C   LIG    1       50.925  60.052  36.489  0.00  0.00    +0.094 C 
ATOM     19  C   LIG    1       51.072  61.260  35.567  0.00  0.00    +0.108 C 
ENDROOT
BRANCH   2   1
ATOM      1  C   LIG    1       49.733  63.199  34.806  0.00  0.00    +0.051 A 
ATOM     20  C   LIG    1       48.468  63.345  34.190  0.00  0.00    +0.031 A 
ATOM     21  C   LIG    1       47.421  62.464  34.447  0.00  0.00    +0.003 A 
ATOM     22  C   LIG    1       46.187  62.628  33.823  0.00  0.00    +0.000 A 
ATOM     23  C   LIG    1       45.974  63.674  32.923  0.00  0.00    +0.002 A 
ATOM     24  C   LIG    1       47.009  64.564  32.656  0.00  0.00    +0.019 A 
ATOM     25  C   LIG    1       48.239  64.398  33.284  0.00  0.00    +0.082 A 
ATOM     26  N   LIG    1       49.219  65.269  32.990  0.00  0.00    -0.241 NA
ATOM     27  C   LIG    1       50.442  65.163  33.549  0.00  0.00    +0.154 A 
ATOM     32  C   LIG    1       50.719  64.144  34.474  0.00  0.00    +0.038 A 
BRANCH  27  28
ATOM     28  C   LIG    1       51.415  66.233  33.133  0.00  0.00    +0.435 C 
ATOM     29  F   LIG    1       52.353  65.685  32.387  0.00  0.00    -0.164 F 
ATOM     30  F   LIG    1       51.948  66.910  34.133  0.00  0.00    -0.164 F 
ATOM     31  F   LIG    1       50.744  67.072  32.374  0.00  0.00    -0.164 F 
ENDBRANCH  27  28
ENDBRANCH   2   1
BRANCH   5   6
ATOM      6  C   LIG    1       50.672  59.315  38.751  0.00  0.00    +0.077 C 
ATOM      7  C   LIG    1       51.845  58.329  38.634  0.00  0.00    +0.044 C 
ATOM      8  C   LIG    1       51.872  57.599  39.976  0.00  0.00    +0.150 C 
ATOM     16  N   LIG    1       51.278  58.547  40.913  0.00  0.00    -0.209 NA
ATOM     17  C   LIG    1       50.694  59.699  40.240  0.00  0.00    +0.105 C 
BRANCH   8   9
ATOM      9  C   LIG    1       53.258  57.130  40.379  0.00  0.00    +0.242 C 
ATOM     10  O   LIG    1       54.246  57.732  39.961  0.00  0.00    -0.273 OA
ATOM     11  N   LIG    1       53.324  56.091  41.224  0.00  0.00    -0.268 N 
ATOM     12  C   LIG    1       52.100  55.415  41.674  0.00  0.00    +0.106 C 
ATOM     13  C   LIG    1       52.408  54.270  42.646  0.00  0.00    +0.081 C 
ATOM     14  S   LIG    1       54.089  53.943  42.402  0.00  0.00    -0.117 S 
ATOM     15  C   LIG    1       54.568  55.526  41.764  0.00  0.00    +0.152 C 
ENDBRANCH   8   9
ENDBRANCH   5   6
TORSDOF 4
ENDMDL
