MODEL 9
REMARK VINA RESULT:    -7.416      5.477      7.811
REMARK INTER + INTRA:          -9.834
REMARK INTER:                  -9.111
REMARK INTRA:                  -0.723
REMARK UNBOUND:                -0.684
REMARK  Name = ligand_1
REMARK                            x       y       z     vdW  Elec       q    Type
REMARK                         _______ _______ _______ _____ _____    ______ ____
ROOT
ATOM      2  N   LIG    1       52.155  62.582  35.117  0.00  0.00    -0.305 N 
ATOM      3  C   LIG    1       53.326  63.345  35.538  0.00  0.00    +0.108 C 
ATOM      4  C   LIG    1       54.060  62.569  36.637  0.00  0.00    +0.094 C 
ATOM      5  N   LIG    1       54.333  61.195  36.187  0.00  0.00    -0.270 NA
ATOM     18  C   LIG    1       53.165  60.441  35.752  0.00  0.00    +0.094 C 
ATOM     19  C   LIG    1       52.440  61.216  34.654  0.00  0.00    +0.108 C 
ENDROOT
BRANCH   2   1
ATOM      1  C   LIG    1       51.148  63.311  34.393  0.00  0.00    +0.051 A 
ATOM     20  C   LIG    1       49.765  63.062  34.554  0.00  0.00    +0.031 A 
ATOM     21  C   LIG    1       49.296  62.009  35.335  0.00  0.00    +0.003 A 
ATOM     22  C   LIG    1       47.929  61.782  35.473  0.00  0.00    +0.000 A 
ATOM     23  C   LIG    1       47.000  62.601  34.829  0.00  0.00    +0.002 A 
ATOM     24  C   LIG    1       47.451  63.659  34.047  0.00  0.00    +0.019 A 
ATOM     25  C   LIG    1       48.818  63.883  33.914  0.00  0.00    +0.082 A 
ATOM     26  N   LIG    1       49.216  64.906  33.138  0.00  0.00    -0.241 NA
ATOM     27  C   LIG    1       50.524  65.176  32.951  0.00  0.00    +0.154 A 
ATOM     32  C   LIG    1       51.511  64.400  33.581  0.00  0.00    +0.038 A 
BRANCH  27  28
ATOM     28  C   LIG    1       50.798  66.369  32.077  0.00  0.00    +0.435 C 
ATOM     29  F   LIG    1       51.240  65.945  30.909  0.00  0.00    -0.164 F 
ATOM     30  F   LIG    1       51.627  67.254  32.598  0.00  0.00    -0.164 F 
ATOM     31  F   LIG    1       49.638  66.955  31.872  0.00  0.00    -0.164 F 
ENDBRANCH  27  28
ENDBRANCH   2   1
BRANCH   5   6
ATOM      6  C   LIG    1       55.017  60.431  37.268  0.00  0.00    +0.077 C 
ATOM      7  C   LIG    1       54.087  59.428  37.966  0.00  0.00    +0.044 C 
ATOM      8  C   LIG    1       55.020  58.344  38.505  0.00  0.00    +0.150 C 
ATOM     16  N   LIG    1       56.173  58.388  37.612  0.00  0.00    -0.209 NA
ATOM     17  C   LIG    1       56.136  59.534  36.713  0.00  0.00    +0.105 C 
BRANCH   8   9
ATOM      9  C   LIG    1       54.369  56.976  38.593  0.00  0.00    +0.242 C 
ATOM     10  O   LIG    1       53.949  56.438  37.569  0.00  0.00    -0.273 OA
ATOM     11  N   LIG    1       54.329  56.401  39.803  0.00  0.00    -0.268 N 
ATOM     12  C   LIG    1       54.842  57.108  40.984  0.00  0.00    +0.106 C 
ATOM     13  C   LIG    1       54.714  56.261  42.254  0.00  0.00    +0.081 C 
ATOM     14  S   LIG    1       53.561  55.039  41.838  0.00  0.00    -0.117 S 
ATOM     15  C   LIG    1       53.785  55.065  40.080  0.00  0.00    +0.152 C 
ENDBRANCH   8   9
ENDBRANCH   5   6
TORSDOF 4
ENDMDL
