MODEL 1
REMARK VINA RESULT:    -8.017      0.000      0.000
REMARK INTER + INTRA:         -10.727
REMARK INTER:                  -9.891
REMARK INTRA:                  -0.835
REMARK UNBOUND:                -0.835
REMARK  Name = ligand_1
REMARK                            x       y       z     vdW  Elec       q    Type
REMARK                         _______ _______ _______ _____ _____    ______ ____
ROOT
ATOM      2  N   LIG    1       51.170  62.534  37.507  0.00  0.00    -0.305 N 
ATOM      3  C   LIG    1       50.745  63.274  38.692  0.00  0.00    +0.108 C 
ATOM      4  C   LIG    1       49.570  62.538  39.345  0.00  0.00    +0.094 C 
ATOM      5  N   LIG    1       49.923  61.129  39.577  0.00  0.00    -0.270 NA
ATOM     18  C   LIG    1       50.363  60.397  38.396  0.00  0.00    +0.094 C 
ATOM     19  C   LIG    1       51.537  61.131  37.752  0.00  0.00    +0.108 C 
ENDROOT
BRANCH   2   1
ATOM      1  C   LIG    1       51.981  63.257  36.564  0.00  0.00    +0.051 A 
ATOM     20  C   LIG    1       51.431  63.934  35.451  0.00  0.00    +0.031 A 
ATOM     21  C   LIG    1       50.079  63.840  35.129  0.00  0.00    +0.003 A 
ATOM     22  C   LIG    1       49.565  64.513  34.025  0.00  0.00    +0.000 A 
ATOM     23  C   LIG    1       50.391  65.292  33.213  0.00  0.00    +0.002 A 
ATOM     24  C   LIG    1       51.743  65.399  33.521  0.00  0.00    +0.019 A 
ATOM     25  C   LIG    1       52.253  64.727  34.627  0.00  0.00    +0.082 A 
ATOM     26  N   LIG    1       53.567  64.842  34.884  0.00  0.00    -0.241 NA
ATOM     27  C   LIG    1       54.134  64.208  35.931  0.00  0.00    +0.154 A 
ATOM     32  C   LIG    1       53.358  63.421  36.796  0.00  0.00    +0.038 A 
BRANCH  27  28
ATOM     28  C   LIG    1       55.608  64.463  36.092  0.00  0.00    +0.435 C 
ATOM     29  F   LIG    1       56.265  63.367  35.771  0.00  0.00    -0.164 F 
ATOM     30  F   LIG    1       55.965  64.890  37.289  0.00  0.00    -0.164 F 
ATOM     31  F   LIG    1       55.925  65.387  35.210  0.00  0.00    -0.164 F 
ENDBRANCH  27  28
ENDBRANCH   2   1
BRANCH   5   6
ATOM      6  C   LIG    1       48.769  60.406  40.181  0.00  0.00    +0.077 C 
ATOM      7  C   LIG    1       48.513  59.041  39.526  0.00  0.00    +0.044 C 
ATOM      8  C   LIG    1       47.824  58.213  40.611  0.00  0.00    +0.150 C 
ATOM     16  N   LIG    1       48.295  58.799  41.861  0.00  0.00    -0.209 NA
ATOM     17  C   LIG    1       49.031  60.038  41.651  0.00  0.00    +0.105 C 
BRANCH   8   9
ATOM      9  C   LIG    1       48.094  56.724  40.495  0.00  0.00    +0.242 C 
ATOM     10  O   LIG    1       49.154  56.266  40.921  0.00  0.00    -0.273 OA
ATOM     11  N   LIG    1       47.121  55.972  39.965  0.00  0.00    -0.268 N 
ATOM     12  C   LIG    1       45.884  56.590  39.468  0.00  0.00    +0.106 C 
ATOM     13  C   LIG    1       44.905  55.545  38.922  0.00  0.00    +0.081 C 
ATOM     14  S   LIG    1       45.880  54.140  38.662  0.00  0.00    -0.117 S 
ATOM     15  C   LIG    1       47.175  54.511  39.815  0.00  0.00    +0.152 C 
ENDBRANCH   8   9
ENDBRANCH   5   6
TORSDOF 4
ENDMDL
