MODEL 8
REMARK VINA RESULT:    -6.268      5.373      9.651
REMARK INTER + INTRA:          -8.420
REMARK INTER:                  -7.612
REMARK INTRA:                  -0.809
REMARK UNBOUND:                -0.687
REMARK  Name = ligand_1
REMARK                            x       y       z     vdW  Elec       q    Type
REMARK                         _______ _______ _______ _____ _____    ______ ____
ROOT
ATOM      2  N   LIG    1       51.322  58.037  38.894  0.00  0.00    -0.305 N 
ATOM      3  C   LIG    1       51.547  57.201  37.720  0.00  0.00    +0.108 C 
ATOM      4  C   LIG    1       50.961  57.900  36.489  0.00  0.00    +0.094 C 
ATOM      5  N   LIG    1       51.483  59.272  36.392  0.00  0.00    -0.270 NA
ATOM     18  C   LIG    1       51.272  60.100  37.571  0.00  0.00    +0.094 C 
ATOM     19  C   LIG    1       51.861  59.402  38.795  0.00  0.00    +0.108 C 
ENDROOT
BRANCH   2   1
ATOM      1  C   LIG    1       51.447  57.387  40.172  0.00  0.00    +0.051 A 
ATOM     20  C   LIG    1       50.363  56.730  40.799  0.00  0.00    +0.031 A 
ATOM     21  C   LIG    1       49.073  56.777  40.276  0.00  0.00    +0.003 A 
ATOM     22  C   LIG    1       48.023  56.126  40.916  0.00  0.00    +0.000 A 
ATOM     23  C   LIG    1       48.237  55.415  42.098  0.00  0.00    +0.002 A 
ATOM     24  C   LIG    1       49.519  55.355  42.634  0.00  0.00    +0.019 A 
ATOM     25  C   LIG    1       50.566  56.005  41.989  0.00  0.00    +0.082 A 
ATOM     26  N   LIG    1       51.788  55.938  42.545  0.00  0.00    -0.241 NA
ATOM     27  C   LIG    1       52.849  56.555  41.984  0.00  0.00    +0.154 A 
ATOM     32  C   LIG    1       52.706  57.274  40.787  0.00  0.00    +0.038 A 
BRANCH  27  28
ATOM     28  C   LIG    1       54.147  56.358  42.718  0.00  0.00    +0.435 C 
ATOM     29  F   LIG    1       55.083  57.068  42.120  0.00  0.00    -0.164 F 
ATOM     30  F   LIG    1       54.522  55.099  42.844  0.00  0.00    -0.164 F 
ATOM     31  F   LIG    1       53.976  56.863  43.921  0.00  0.00    -0.164 F 
ENDBRANCH  27  28
ENDBRANCH   2   1
BRANCH   5   6
ATOM      6  C   LIG    1       50.887  59.962  35.214  0.00  0.00    +0.077 C 
ATOM      7  C   LIG    1       51.121  61.481  35.234  0.00  0.00    +0.044 C 
ATOM      8  C   LIG    1       51.073  61.900  33.765  0.00  0.00    +0.150 C 
ATOM     16  N   LIG    1       51.476  60.701  33.037  0.00  0.00    -0.209 NA
ATOM     17  C   LIG    1       51.557  59.530  33.899  0.00  0.00    +0.105 C 
BRANCH   8   9
ATOM      9  C   LIG    1       51.926  63.116  33.457  0.00  0.00    +0.242 C 
ATOM     10  O   LIG    1       53.141  63.069  33.649  0.00  0.00    -0.273 OA
ATOM     11  N   LIG    1       51.298  64.181  32.939  0.00  0.00    -0.268 N 
ATOM     12  C   LIG    1       49.842  64.169  32.746  0.00  0.00    +0.106 C 
ATOM     13  C   LIG    1       49.340  65.478  32.126  0.00  0.00    +0.081 C 
ATOM     14  S   LIG    1       50.633  66.598  32.386  0.00  0.00    -0.117 S 
ATOM     15  C   LIG    1       51.958  65.429  32.532  0.00  0.00    +0.152 C 
ENDBRANCH   8   9
ENDBRANCH   5   6
TORSDOF 4
ENDMDL
