MODEL 1
REMARK VINA RESULT:    -8.466      0.000      0.000
REMARK INTER + INTRA:         -11.154
REMARK INTER:                 -10.446
REMARK INTRA:                  -0.708
REMARK UNBOUND:                -0.708
REMARK  Name = ligand_1
REMARK                            x       y       z     vdW  Elec       q    Type
REMARK                         _______ _______ _______ _____ _____    ______ ____
ROOT
ATOM      2  N   LIG    1       50.191  61.936  38.325  0.00  0.00    -0.305 N 
ATOM      3  C   LIG    1       50.410  63.278  38.855  0.00  0.00    +0.108 C 
ATOM      4  C   LIG    1       51.643  63.888  38.180  0.00  0.00    +0.094 C 
ATOM      5  N   LIG    1       51.509  63.805  36.717  0.00  0.00    -0.270 NA
ATOM     18  C   LIG    1       51.275  62.467  36.191  0.00  0.00    +0.094 C 
ATOM     19  C   LIG    1       50.042  61.866  36.864  0.00  0.00    +0.108 C 
ENDROOT
BRANCH   2   1
ATOM      1  C   LIG    1       49.338  61.077  39.102  0.00  0.00    +0.051 A 
ATOM     20  C   LIG    1       49.839  59.991  39.858  0.00  0.00    +0.031 A 
ATOM     21  C   LIG    1       51.177  59.611  39.799  0.00  0.00    +0.003 A 
ATOM     22  C   LIG    1       51.643  58.535  40.549  0.00  0.00    +0.000 A 
ATOM     23  C   LIG    1       50.780  57.811  41.373  0.00  0.00    +0.002 A 
ATOM     24  C   LIG    1       49.440  58.178  41.446  0.00  0.00    +0.019 A 
ATOM     25  C   LIG    1       48.980  59.256  40.696  0.00  0.00    +0.082 A 
ATOM     26  N   LIG    1       47.676  59.572  40.781  0.00  0.00    -0.241 NA
ATOM     27  C   LIG    1       47.155  60.595  40.073  0.00  0.00    +0.154 A 
ATOM     32  C   LIG    1       47.971  61.373  39.236  0.00  0.00    +0.038 A 
BRANCH  27  28
ATOM     28  C   LIG    1       45.687  60.831  40.303  0.00  0.00    +0.435 C 
ATOM     29  F   LIG    1       45.056  60.722  39.151  0.00  0.00    -0.164 F 
ATOM     30  F   LIG    1       45.400  61.978  40.888  0.00  0.00    -0.164 F 
ATOM     31  F   LIG    1       45.269  59.853  41.077  0.00  0.00    -0.164 F 
ENDBRANCH  27  28
ENDBRANCH   2   1
BRANCH   5   6
ATOM      6  C   LIG    1       52.723  64.367  36.061  0.00  0.00    +0.077 C 
ATOM      7  C   LIG    1       53.995  64.176  36.900  0.00  0.00    +0.044 C 
ATOM      8  C   LIG    1       55.134  64.172  35.880  0.00  0.00    +0.150 C 
ATOM     16  N   LIG    1       54.509  63.706  34.647  0.00  0.00    -0.209 NA
ATOM     17  C   LIG    1       53.059  63.631  34.754  0.00  0.00    +0.105 C 
BRANCH   8   9
ATOM      9  C   LIG    1       56.327  63.339  36.313  0.00  0.00    +0.242 C 
ATOM     10  O   LIG    1       56.493  62.221  35.827  0.00  0.00    -0.273 OA
ATOM     11  N   LIG    1       57.175  63.903  37.184  0.00  0.00    -0.268 N 
ATOM     12  C   LIG    1       56.907  65.240  37.729  0.00  0.00    +0.106 C 
ATOM     13  C   LIG    1       58.012  65.694  38.690  0.00  0.00    +0.081 C 
ATOM     14  S   LIG    1       58.841  64.234  39.109  0.00  0.00    -0.117 S 
ATOM     15  C   LIG    1       58.407  63.276  37.682  0.00  0.00    +0.152 C 
ENDBRANCH   8   9
ENDBRANCH   5   6
TORSDOF 4
ENDMDL
