MODEL 1
REMARK VINA RESULT:    -8.485      0.000      0.000
REMARK INTER + INTRA:         -11.152
REMARK INTER:                 -10.469
REMARK INTRA:                  -0.684
REMARK UNBOUND:                -0.684
REMARK  Name = ligand_1
REMARK                            x       y       z     vdW  Elec       q    Type
REMARK                         _______ _______ _______ _____ _____    ______ ____
ROOT
ATOM      2  N   LIG    1       50.250  61.930  38.261  0.00  0.00    -0.305 N 
ATOM      3  C   LIG    1       50.433  63.286  38.770  0.00  0.00    +0.108 C 
ATOM      4  C   LIG    1       51.668  63.905  38.107  0.00  0.00    +0.094 C 
ATOM      5  N   LIG    1       51.566  63.792  36.644  0.00  0.00    -0.270 NA
ATOM     18  C   LIG    1       51.366  62.440  36.139  0.00  0.00    +0.094 C 
ATOM     19  C   LIG    1       50.132  61.829  36.798  0.00  0.00    +0.108 C 
ENDROOT
BRANCH   2   1
ATOM      1  C   LIG    1       49.397  61.070  39.037  0.00  0.00    +0.051 A 
ATOM     20  C   LIG    1       49.897  59.983  39.791  0.00  0.00    +0.031 A 
ATOM     21  C   LIG    1       51.236  59.602  39.731  0.00  0.00    +0.003 A 
ATOM     22  C   LIG    1       51.701  58.526  40.480  0.00  0.00    +0.000 A 
ATOM     23  C   LIG    1       50.839  57.800  41.303  0.00  0.00    +0.002 A 
ATOM     24  C   LIG    1       49.499  58.168  41.377  0.00  0.00    +0.019 A 
ATOM     25  C   LIG    1       49.038  59.247  40.629  0.00  0.00    +0.082 A 
ATOM     26  N   LIG    1       47.735  59.562  40.715  0.00  0.00    -0.241 NA
ATOM     27  C   LIG    1       47.214  60.587  40.008  0.00  0.00    +0.154 A 
ATOM     32  C   LIG    1       48.029  61.366  39.172  0.00  0.00    +0.038 A 
BRANCH  27  28
ATOM     28  C   LIG    1       45.746  60.823  40.238  0.00  0.00    +0.435 C 
ATOM     29  F   LIG    1       45.350  60.074  41.248  0.00  0.00    -0.164 F 
ATOM     30  F   LIG    1       44.984  60.623  39.180  0.00  0.00    -0.164 F 
ATOM     31  F   LIG    1       45.624  62.080  40.607  0.00  0.00    -0.164 F 
ENDBRANCH  27  28
ENDBRANCH   2   1
BRANCH   5   6
ATOM      6  C   LIG    1       52.782  64.364  36.001  0.00  0.00    +0.077 C 
ATOM      7  C   LIG    1       54.049  64.170  36.848  0.00  0.00    +0.044 C 
ATOM      8  C   LIG    1       55.196  64.179  35.836  0.00  0.00    +0.150 C 
ATOM     16  N   LIG    1       54.581  63.722  34.595  0.00  0.00    -0.209 NA
ATOM     17  C   LIG    1       53.130  63.641  34.690  0.00  0.00    +0.105 C 
BRANCH   8   9
ATOM      9  C   LIG    1       56.388  63.346  36.270  0.00  0.00    +0.242 C 
ATOM     10  O   LIG    1       56.572  62.241  35.762  0.00  0.00    -0.273 OA
ATOM     11  N   LIG    1       57.216  63.897  37.168  0.00  0.00    -0.268 N 
ATOM     12  C   LIG    1       56.928  65.219  37.739  0.00  0.00    +0.106 C 
ATOM     13  C   LIG    1       58.012  65.661  38.728  0.00  0.00    +0.081 C 
ATOM     14  S   LIG    1       58.847  64.199  39.128  0.00  0.00    -0.117 S 
ATOM     15  C   LIG    1       58.445  63.269  37.672  0.00  0.00    +0.152 C 
ENDBRANCH   8   9
ENDBRANCH   5   6
TORSDOF 4
ENDMDL
