MODEL 6
REMARK VINA RESULT:    -7.566      5.275      7.037
REMARK INTER + INTRA:         -10.018
REMARK INTER:                  -9.430
REMARK INTRA:                  -0.588
REMARK UNBOUND:                -0.684
REMARK  Name = ligand_1
REMARK                            x       y       z     vdW  Elec       q    Type
REMARK                         _______ _______ _______ _____ _____    ______ ____
ROOT
ATOM      2  N   LIG    1       53.548  57.928  38.724  0.00  0.00    -0.305 N 
ATOM      3  C   LIG    1       54.473  59.030  38.478  0.00  0.00    +0.108 C 
ATOM      4  C   LIG    1       54.059  59.752  37.192  0.00  0.00    +0.094 C 
ATOM      5  N   LIG    1       52.638  60.129  37.260  0.00  0.00    -0.270 NA
ATOM     18  C   LIG    1       51.718  59.031  37.523  0.00  0.00    +0.094 C 
ATOM     19  C   LIG    1       52.132  58.317  38.807  0.00  0.00    +0.108 C 
ENDROOT
BRANCH   2   1
ATOM      1  C   LIG    1       53.994  56.917  39.646  0.00  0.00    +0.051 A 
ATOM     20  C   LIG    1       54.823  55.842  39.251  0.00  0.00    +0.031 A 
ATOM     21  C   LIG    1       55.160  55.626  37.917  0.00  0.00    +0.003 A 
ATOM     22  C   LIG    1       55.974  54.557  37.555  0.00  0.00    +0.000 A 
ATOM     23  C   LIG    1       56.467  53.675  38.518  0.00  0.00    +0.002 A 
ATOM     24  C   LIG    1       56.142  53.877  39.856  0.00  0.00    +0.019 A 
ATOM     25  C   LIG    1       55.331  54.949  40.213  0.00  0.00    +0.082 A 
ATOM     26  N   LIG    1       55.026  55.102  41.513  0.00  0.00    -0.241 NA
ATOM     27  C   LIG    1       54.233  56.110  41.933  0.00  0.00    +0.154 A 
ATOM     32  C   LIG    1       53.716  57.041  41.018  0.00  0.00    +0.038 A 
BRANCH  27  28
ATOM     28  C   LIG    1       54.013  56.154  43.421  0.00  0.00    +0.435 C 
ATOM     29  F   LIG    1       54.915  56.951  43.958  0.00  0.00    -0.164 F 
ATOM     30  F   LIG    1       54.018  54.975  44.013  0.00  0.00    -0.164 F 
ATOM     31  F   LIG    1       52.834  56.708  43.607  0.00  0.00    -0.164 F 
ENDBRANCH  27  28
ENDBRANCH   2   1
BRANCH   5   6
ATOM      6  C   LIG    1       52.227  60.802  35.996  0.00  0.00    +0.077 C 
ATOM      7  C   LIG    1       51.541  62.155  36.239  0.00  0.00    +0.044 C 
ATOM      8  C   LIG    1       51.795  62.954  34.961  0.00  0.00    +0.150 C 
ATOM     16  N   LIG    1       53.029  62.389  34.425  0.00  0.00    -0.209 NA
ATOM     17  C   LIG    1       53.439  61.182  35.131  0.00  0.00    +0.105 C 
BRANCH   8   9
ATOM      9  C   LIG    1       51.859  64.452  35.189  0.00  0.00    +0.242 C 
ATOM     10  O   LIG    1       52.139  64.884  36.306  0.00  0.00    -0.273 OA
ATOM     11  N   LIG    1       51.646  65.236  34.123  0.00  0.00    -0.268 N 
ATOM     12  C   LIG    1       51.306  64.650  32.819  0.00  0.00    +0.106 C 
ATOM     13  C   LIG    1       51.123  65.725  31.742  0.00  0.00    +0.081 C 
ATOM     14  S   LIG    1       50.899  67.190  32.635  0.00  0.00    -0.117 S 
ATOM     15  C   LIG    1       51.712  66.704  34.133  0.00  0.00    +0.152 C 
ENDBRANCH   8   9
ENDBRANCH   5   6
TORSDOF 4
ENDMDL
