MODEL 1
REMARK VINA RESULT:    -8.486      0.000      0.000
REMARK INTER + INTRA:         -11.169
REMARK INTER:                 -10.471
REMARK INTRA:                  -0.698
REMARK UNBOUND:                -0.698
REMARK  Name = ligand_1
REMARK                            x       y       z     vdW  Elec       q    Type
REMARK                         _______ _______ _______ _____ _____    ______ ____
ROOT
ATOM      2  N   LIG    1       50.229  61.922  38.292  0.00  0.00    -0.305 N 
ATOM      3  C   LIG    1       50.398  63.275  38.814  0.00  0.00    +0.108 C 
ATOM      4  C   LIG    1       51.625  63.914  38.156  0.00  0.00    +0.094 C 
ATOM      5  N   LIG    1       51.523  63.813  36.692  0.00  0.00    -0.270 NA
ATOM     18  C   LIG    1       51.338  62.464  36.175  0.00  0.00    +0.094 C 
ATOM     19  C   LIG    1       50.111  61.833  36.829  0.00  0.00    +0.108 C 
ENDROOT
BRANCH   2   1
ATOM      1  C   LIG    1       49.386  61.045  39.062  0.00  0.00    +0.051 A 
ATOM     20  C   LIG    1       49.899  59.953  39.801  0.00  0.00    +0.031 A 
ATOM     21  C   LIG    1       51.240  59.585  39.731  0.00  0.00    +0.003 A 
ATOM     22  C   LIG    1       51.718  58.503  40.465  0.00  0.00    +0.000 A 
ATOM     23  C   LIG    1       50.864  57.761  41.282  0.00  0.00    +0.002 A 
ATOM     24  C   LIG    1       49.522  58.116  41.366  0.00  0.00    +0.019 A 
ATOM     25  C   LIG    1       49.049  59.200  40.633  0.00  0.00    +0.082 A 
ATOM     26  N   LIG    1       47.744  59.503  40.727  0.00  0.00    -0.241 NA
ATOM     27  C   LIG    1       47.211  60.532  40.035  0.00  0.00    +0.154 A 
ATOM     32  C   LIG    1       48.017  61.328  39.206  0.00  0.00    +0.038 A 
BRANCH  27  28
ATOM     28  C   LIG    1       45.742  60.752  40.274  0.00  0.00    +0.435 C 
ATOM     29  F   LIG    1       45.363  60.011  41.295  0.00  0.00    -0.164 F 
ATOM     30  F   LIG    1       44.975  60.531  39.223  0.00  0.00    -0.164 F 
ATOM     31  F   LIG    1       45.608  62.012  40.629  0.00  0.00    -0.164 F 
ENDBRANCH  27  28
ENDBRANCH   2   1
BRANCH   5   6
ATOM      6  C   LIG    1       52.731  64.405  36.054  0.00  0.00    +0.077 C 
ATOM      7  C   LIG    1       54.007  64.191  36.883  0.00  0.00    +0.044 C 
ATOM      8  C   LIG    1       55.144  64.229  35.862  0.00  0.00    +0.150 C 
ATOM     16  N   LIG    1       54.519  63.803  34.614  0.00  0.00    -0.209 NA
ATOM     17  C   LIG    1       53.069  63.717  34.721  0.00  0.00    +0.105 C 
BRANCH   8   9
ATOM      9  C   LIG    1       56.342  63.389  36.263  0.00  0.00    +0.242 C 
ATOM     10  O   LIG    1       56.515  62.291  35.735  0.00  0.00    -0.273 OA
ATOM     11  N   LIG    1       57.186  63.924  37.156  0.00  0.00    -0.268 N 
ATOM     12  C   LIG    1       56.909  65.238  37.752  0.00  0.00    +0.106 C 
ATOM     13  C   LIG    1       58.010  65.662  38.729  0.00  0.00    +0.081 C 
ATOM     14  S   LIG    1       58.849  64.193  39.092  0.00  0.00    -0.117 S 
ATOM     15  C   LIG    1       58.422  63.287  37.629  0.00  0.00    +0.152 C 
ENDBRANCH   8   9
ENDBRANCH   5   6
TORSDOF 4
ENDMDL
