MODEL 8
REMARK VINA RESULT:    -7.230      5.889      9.332
REMARK INTER + INTRA:          -9.629
REMARK INTER:                  -9.042
REMARK INTRA:                  -0.586
REMARK UNBOUND:                -0.708
REMARK  Name = ligand_1
REMARK                            x       y       z     vdW  Elec       q    Type
REMARK                         _______ _______ _______ _____ _____    ______ ____
ROOT
ATOM      2  N   LIG    1       49.026  62.731  35.632  0.00  0.00    -0.305 N 
ATOM      3  C   LIG    1       49.994  63.034  36.682  0.00  0.00    +0.108 C 
ATOM      4  C   LIG    1       49.546  62.360  37.983  0.00  0.00    +0.094 C 
ATOM      5  N   LIG    1       49.299  60.929  37.751  0.00  0.00    -0.270 NA
ATOM     18  C   LIG    1       48.345  60.628  36.692  0.00  0.00    +0.094 C 
ATOM     19  C   LIG    1       48.797  61.298  35.396  0.00  0.00    +0.108 C 
ENDROOT
BRANCH   2   1
ATOM      1  C   LIG    1       49.063  63.578  34.470  0.00  0.00    +0.051 A 
ATOM     20  C   LIG    1       47.904  63.901  33.727  0.00  0.00    +0.031 A 
ATOM     21  C   LIG    1       46.669  63.320  34.004  0.00  0.00    +0.003 A 
ATOM     22  C   LIG    1       45.545  63.652  33.254  0.00  0.00    +0.000 A 
ATOM     23  C   LIG    1       45.629  64.571  32.206  0.00  0.00    +0.002 A 
ATOM     24  C   LIG    1       46.854  65.163  31.917  0.00  0.00    +0.019 A 
ATOM     25  C   LIG    1       47.975  64.830  32.671  0.00  0.00    +0.082 A 
ATOM     26  N   LIG    1       49.144  65.411  32.353  0.00  0.00    -0.241 NA
ATOM     27  C   LIG    1       50.276  65.127  33.030  0.00  0.00    +0.154 A 
ATOM     32  C   LIG    1       50.258  64.223  34.104  0.00  0.00    +0.038 A 
BRANCH  27  28
ATOM     28  C   LIG    1       51.490  65.883  32.564  0.00  0.00    +0.435 C 
ATOM     29  F   LIG    1       52.564  65.167  32.833  0.00  0.00    -0.164 F 
ATOM     30  F   LIG    1       51.603  67.101  33.058  0.00  0.00    -0.164 F 
ATOM     31  F   LIG    1       51.394  65.972  31.254  0.00  0.00    -0.164 F 
ENDBRANCH  27  28
ENDBRANCH   2   1
BRANCH   5   6
ATOM      6  C   LIG    1       48.832  60.281  39.009  0.00  0.00    +0.077 C 
ATOM      7  C   LIG    1       49.428  58.879  39.212  0.00  0.00    +0.044 C 
ATOM      8  C   LIG    1       49.411  58.667  40.726  0.00  0.00    +0.150 C 
ATOM     16  N   LIG    1       49.475  60.016  41.277  0.00  0.00    -0.209 NA
ATOM     17  C   LIG    1       49.311  61.041  40.256  0.00  0.00    +0.105 C 
BRANCH   8   9
ATOM      9  C   LIG    1       50.518  57.753  41.218  0.00  0.00    +0.242 C 
ATOM     10  O   LIG    1       51.691  58.110  41.111  0.00  0.00    -0.273 OA
ATOM     11  N   LIG    1       50.142  56.604  41.796  0.00  0.00    -0.268 N 
ATOM     12  C   LIG    1       48.722  56.239  41.881  0.00  0.00    +0.106 C 
ATOM     13  C   LIG    1       48.521  54.898  42.595  0.00  0.00    +0.081 C 
ATOM     14  S   LIG    1       50.080  54.149  42.545  0.00  0.00    -0.117 S 
ATOM     15  C   LIG    1       51.062  55.616  42.376  0.00  0.00    +0.152 C 
ENDBRANCH   8   9
ENDBRANCH   5   6
TORSDOF 4
ENDMDL
