MODEL 3
REMARK VINA RESULT:    -7.825      1.966      3.111
REMARK INTER + INTRA:         -10.363
REMARK INTER:                 -10.433
REMARK INTRA:                   0.070
REMARK UNBOUND:                -0.708
REMARK  Name = ligand_1
REMARK                            x       y       z     vdW  Elec       q    Type
REMARK                         _______ _______ _______ _____ _____    ______ ____
ROOT
ATOM      2  N   LIG    1       50.538  61.749  38.716  0.00  0.00    -0.305 N 
ATOM      3  C   LIG    1       50.432  63.177  39.000  0.00  0.00    +0.108 C 
ATOM      4  C   LIG    1       51.587  63.910  38.309  0.00  0.00    +0.094 C 
ATOM      5  N   LIG    1       51.627  63.555  36.882  0.00  0.00    -0.270 NA
ATOM     18  C   LIG    1       51.715  62.128  36.600  0.00  0.00    +0.094 C 
ATOM     19  C   LIG    1       50.560  61.403  37.287  0.00  0.00    +0.108 C 
ENDROOT
BRANCH   2   1
ATOM      1  C   LIG    1       49.792  60.873  39.580  0.00  0.00    +0.051 A 
ATOM     20  C   LIG    1       48.400  61.011  39.785  0.00  0.00    +0.031 A 
ATOM     21  C   LIG    1       47.684  62.083  39.258  0.00  0.00    +0.003 A 
ATOM     22  C   LIG    1       46.314  62.199  39.479  0.00  0.00    +0.000 A 
ATOM     23  C   LIG    1       45.629  61.248  40.237  0.00  0.00    +0.002 A 
ATOM     24  C   LIG    1       46.328  60.169  40.769  0.00  0.00    +0.019 A 
ATOM     25  C   LIG    1       47.696  60.056  40.543  0.00  0.00    +0.082 A 
ATOM     26  N   LIG    1       48.340  59.009  41.086  0.00  0.00    -0.241 NA
ATOM     27  C   LIG    1       49.669  58.841  40.922  0.00  0.00    +0.154 A 
ATOM     32  C   LIG    1       50.415  59.753  40.159  0.00  0.00    +0.038 A 
BRANCH  27  28
ATOM     28  C   LIG    1       50.228  57.605  41.572  0.00  0.00    +0.435 C 
ATOM     29  F   LIG    1       50.860  56.896  40.658  0.00  0.00    -0.164 F 
ATOM     30  F   LIG    1       49.337  56.866  42.206  0.00  0.00    -0.164 F 
ATOM     31  F   LIG    1       51.124  58.015  42.444  0.00  0.00    -0.164 F 
ENDBRANCH  27  28
ENDBRANCH   2   1
BRANCH   5   6
ATOM      6  C   LIG    1       52.769  64.242  36.217  0.00  0.00    +0.077 C 
ATOM      7  C   LIG    1       54.088  64.085  36.988  0.00  0.00    +0.044 C 
ATOM      8  C   LIG    1       55.178  64.227  35.925  0.00  0.00    +0.150 C 
ATOM     16  N   LIG    1       54.530  63.800  34.690  0.00  0.00    -0.209 NA
ATOM     17  C   LIG    1       53.094  63.618  34.850  0.00  0.00    +0.105 C 
BRANCH   8   9
ATOM      9  C   LIG    1       56.442  63.452  36.251  0.00  0.00    +0.242 C 
ATOM     10  O   LIG    1       56.689  62.413  35.641  0.00  0.00    -0.273 OA
ATOM     11  N   LIG    1       57.256  63.983  37.173  0.00  0.00    -0.268 N 
ATOM     12  C   LIG    1       56.891  65.225  37.868  0.00  0.00    +0.106 C 
ATOM     13  C   LIG    1       57.972  65.659  38.863  0.00  0.00    +0.081 C 
ATOM     14  S   LIG    1       58.924  64.235  39.108  0.00  0.00    -0.117 S 
ATOM     15  C   LIG    1       58.544  63.409  37.586  0.00  0.00    +0.152 C 
ENDBRANCH   8   9
ENDBRANCH   5   6
TORSDOF 4
ENDMDL
