MODEL 7
REMARK VINA RESULT:    -6.378      5.260      9.071
REMARK INTER + INTRA:          -8.556
REMARK INTER:                  -8.301
REMARK INTRA:                  -0.254
REMARK UNBOUND:                -0.687
REMARK  Name = ligand_1
REMARK                            x       y       z     vdW  Elec       q    Type
REMARK                         _______ _______ _______ _____ _____    ______ ____
ROOT
ATOM      2  N   LIG    1       51.493  59.438  37.681  0.00  0.00    -0.305 N 
ATOM      3  C   LIG    1       51.516  58.427  36.628  0.00  0.00    +0.108 C 
ATOM      4  C   LIG    1       51.275  59.109  35.277  0.00  0.00    +0.094 C 
ATOM      5  N   LIG    1       52.218  60.224  35.099  0.00  0.00    -0.270 NA
ATOM     18  C   LIG    1       52.205  61.222  36.159  0.00  0.00    +0.094 C 
ATOM     19  C   LIG    1       52.450  60.539  37.503  0.00  0.00    +0.108 C 
ENDROOT
BRANCH   2   1
ATOM      1  C   LIG    1       51.311  58.953  39.023  0.00  0.00    +0.051 A 
ATOM     20  C   LIG    1       52.247  58.104  39.658  0.00  0.00    +0.031 A 
ATOM     21  C   LIG    1       53.346  57.585  38.978  0.00  0.00    +0.003 A 
ATOM     22  C   LIG    1       54.250  56.748  39.625  0.00  0.00    +0.000 A 
ATOM     23  C   LIG    1       54.075  56.405  40.967  0.00  0.00    +0.002 A 
ATOM     24  C   LIG    1       52.984  56.917  41.662  0.00  0.00    +0.019 A 
ATOM     25  C   LIG    1       52.084  57.755  41.012  0.00  0.00    +0.082 A 
ATOM     26  N   LIG    1       51.034  58.217  41.713  0.00  0.00    -0.241 NA
ATOM     27  C   LIG    1       50.113  59.024  41.145  0.00  0.00    +0.154 A 
ATOM     32  C   LIG    1       50.238  59.418  39.804  0.00  0.00    +0.038 A 
BRANCH  27  28
ATOM     28  C   LIG    1       49.018  59.472  42.074  0.00  0.00    +0.435 C 
ATOM     29  F   LIG    1       48.232  60.310  41.428  0.00  0.00    -0.164 F 
ATOM     30  F   LIG    1       49.439  60.003  43.206  0.00  0.00    -0.164 F 
ATOM     31  F   LIG    1       48.307  58.401  42.356  0.00  0.00    -0.164 F 
ENDBRANCH  27  28
ENDBRANCH   2   1
BRANCH   5   6
ATOM      6  C   LIG    1       51.962  60.907  33.800  0.00  0.00    +0.077 C 
ATOM      7  C   LIG    1       50.578  61.570  33.740  0.00  0.00    +0.044 C 
ATOM      8  C   LIG    1       50.736  62.705  32.728  0.00  0.00    +0.150 C 
ATOM     16  N   LIG    1       52.154  63.045  32.790  0.00  0.00    -0.209 NA
ATOM     17  C   LIG    1       52.920  62.088  33.577  0.00  0.00    +0.105 C 
BRANCH   8   9
ATOM      9  C   LIG    1       49.815  63.882  32.993  0.00  0.00    +0.242 C 
ATOM     10  O   LIG    1       50.183  64.782  33.747  0.00  0.00    -0.273 OA
ATOM     11  N   LIG    1       48.645  63.894  32.339  0.00  0.00    -0.268 N 
ATOM     12  C   LIG    1       48.268  62.779  31.461  0.00  0.00    +0.106 C 
ATOM     13  C   LIG    1       46.903  63.009  30.803  0.00  0.00    +0.081 C 
ATOM     14  S   LIG    1       46.168  64.244  31.767  0.00  0.00    -0.117 S 
ATOM     15  C   LIG    1       47.646  64.967  32.427  0.00  0.00    +0.152 C 
ENDBRANCH   8   9
ENDBRANCH   5   6
TORSDOF 4
ENDMDL
