MODEL 9
REMARK VINA RESULT:    -6.599      3.671      4.703
REMARK INTER + INTRA:          -8.971
REMARK INTER:                  -8.658
REMARK INTRA:                  -0.313
REMARK UNBOUND:                -0.829
REMARK  Name = ligand_1
REMARK                            x       y       z     vdW  Elec       q    Type
REMARK                         _______ _______ _______ _____ _____    ______ ____
ROOT
ATOM      2  N   LIG    1       49.374  62.161  35.891  0.00  0.00    -0.305 N 
ATOM      3  C   LIG    1       49.601  60.789  35.448  0.00  0.00    +0.108 C 
ATOM      4  C   LIG    1       49.961  59.925  36.662  0.00  0.00    +0.094 C 
ATOM      5  N   LIG    1       48.945  60.086  37.714  0.00  0.00    -0.270 NA
ATOM     18  C   LIG    1       48.708  61.458  38.143  0.00  0.00    +0.094 C 
ATOM     19  C   LIG    1       48.345  62.313  36.931  0.00  0.00    +0.108 C 
ENDROOT
BRANCH   2   1
ATOM      1  C   LIG    1       49.412  63.173  34.869  0.00  0.00    +0.051 A 
ATOM     20  C   LIG    1       48.306  63.450  34.032  0.00  0.00    +0.031 A 
ATOM     21  C   LIG    1       47.150  62.675  34.064  0.00  0.00    +0.003 A 
ATOM     22  C   LIG    1       46.077  62.967  33.226  0.00  0.00    +0.000 A 
ATOM     23  C   LIG    1       46.138  64.038  32.333  0.00  0.00    +0.002 A 
ATOM     24  C   LIG    1       47.285  64.824  32.289  0.00  0.00    +0.019 A 
ATOM     25  C   LIG    1       48.353  64.531  33.131  0.00  0.00    +0.082 A 
ATOM     26  N   LIG    1       49.450  65.303  33.050  0.00  0.00    -0.241 NA
ATOM     27  C   LIG    1       50.530  65.071  33.824  0.00  0.00    +0.154 A 
ATOM     32  C   LIG    1       50.529  64.019  34.754  0.00  0.00    +0.038 A 
BRANCH  27  28
ATOM     28  C   LIG    1       51.661  66.043  33.628  0.00  0.00    +0.435 C 
ATOM     29  F   LIG    1       52.288  65.743  32.508  0.00  0.00    -0.164 F 
ATOM     30  F   LIG    1       52.510  66.110  34.636  0.00  0.00    -0.164 F 
ATOM     31  F   LIG    1       51.111  67.228  33.468  0.00  0.00    -0.164 F 
ENDBRANCH  27  28
ENDBRANCH   2   1
BRANCH   5   6
ATOM      6  C   LIG    1       49.313  59.272  38.906  0.00  0.00    +0.077 C 
ATOM      7  C   LIG    1       50.507  58.342  38.646  0.00  0.00    +0.044 C 
ATOM      8  C   LIG    1       51.136  58.125  40.023  0.00  0.00    +0.150 C 
ATOM     16  N   LIG    1       50.774  59.322  40.774  0.00  0.00    -0.209 NA
ATOM     17  C   LIG    1       49.807  60.150  40.067  0.00  0.00    +0.105 C 
BRANCH   8   9
ATOM      9  C   LIG    1       52.630  57.866  39.969  0.00  0.00    +0.242 C 
ATOM     10  O   LIG    1       53.313  58.432  39.116  0.00  0.00    -0.273 OA
ATOM     11  N   LIG    1       53.138  57.054  40.906  0.00  0.00    -0.268 N 
ATOM     12  C   LIG    1       52.260  56.405  41.889  0.00  0.00    +0.106 C 
ATOM     13  C   LIG    1       53.051  55.537  42.873  0.00  0.00    +0.081 C 
ATOM     14  S   LIG    1       54.578  55.292  42.095  0.00  0.00    -0.117 S 
ATOM     15  C   LIG    1       54.562  56.722  41.047  0.00  0.00    +0.152 C 
ENDBRANCH   8   9
ENDBRANCH   5   6
TORSDOF 4
ENDMDL
