MODEL 5
REMARK VINA RESULT:    -7.341      4.518      5.636
REMARK INTER + INTRA:          -9.866
REMARK INTER:                  -8.968
REMARK INTRA:                  -0.898
REMARK UNBOUND:                -0.809
REMARK  Name = ligand_1
REMARK                            x       y       z     vdW  Elec       q    Type
REMARK                         _______ _______ _______ _____ _____    ______ ____
ROOT
ATOM      2  N   LIG    1       49.130  62.151  36.023  0.00  0.00    -0.305 N 
ATOM      3  C   LIG    1       49.562  60.832  35.568  0.00  0.00    +0.108 C 
ATOM      4  C   LIG    1       49.959  59.990  36.785  0.00  0.00    +0.094 C 
ATOM      5  N   LIG    1       48.870  59.987  37.774  0.00  0.00    -0.270 NA
ATOM     18  C   LIG    1       48.429  61.304  38.214  0.00  0.00    +0.094 C 
ATOM     19  C   LIG    1       48.030  62.138  36.999  0.00  0.00    +0.108 C 
ENDROOT
BRANCH   2   1
ATOM      1  C   LIG    1       49.095  63.187  35.026  0.00  0.00    +0.051 A 
ATOM     20  C   LIG    1       50.170  64.084  34.824  0.00  0.00    +0.031 A 
ATOM     21  C   LIG    1       51.281  64.098  35.663  0.00  0.00    +0.003 A 
ATOM     22  C   LIG    1       52.323  64.995  35.445  0.00  0.00    +0.000 A 
ATOM     23  C   LIG    1       52.276  65.903  34.386  0.00  0.00    +0.002 A 
ATOM     24  C   LIG    1       51.175  65.901  33.537  0.00  0.00    +0.019 A 
ATOM     25  C   LIG    1       50.137  65.001  33.756  0.00  0.00    +0.082 A 
ATOM     26  N   LIG    1       49.083  65.040  32.924  0.00  0.00    -0.241 NA
ATOM     27  C   LIG    1       48.033  64.207  33.083  0.00  0.00    +0.154 A 
ATOM     32  C   LIG    1       48.023  63.260  34.120  0.00  0.00    +0.038 A 
BRANCH  27  28
ATOM     28  C   LIG    1       46.949  64.362  32.051  0.00  0.00    +0.435 C 
ATOM     29  F   LIG    1       46.456  65.581  32.136  0.00  0.00    -0.164 F 
ATOM     30  F   LIG    1       45.988  63.462  32.124  0.00  0.00    -0.164 F 
ATOM     31  F   LIG    1       47.534  64.253  30.877  0.00  0.00    -0.164 F 
ENDBRANCH  27  28
ENDBRANCH   2   1
BRANCH   5   6
ATOM      6  C   LIG    1       49.269  59.196  38.971  0.00  0.00    +0.077 C 
ATOM      7  C   LIG    1       50.461  58.266  38.699  0.00  0.00    +0.044 C 
ATOM      8  C   LIG    1       51.123  58.075  40.063  0.00  0.00    +0.150 C 
ATOM     16  N   LIG    1       50.774  59.283  40.803  0.00  0.00    -0.209 NA
ATOM     17  C   LIG    1       49.787  60.095  40.105  0.00  0.00    +0.105 C 
BRANCH   8   9
ATOM      9  C   LIG    1       52.617  57.821  39.978  0.00  0.00    +0.242 C 
ATOM     10  O   LIG    1       53.280  58.392  39.113  0.00  0.00    -0.273 OA
ATOM     11  N   LIG    1       53.146  57.007  40.901  0.00  0.00    -0.268 N 
ATOM     12  C   LIG    1       52.291  56.352  41.899  0.00  0.00    +0.106 C 
ATOM     13  C   LIG    1       53.104  55.482  42.864  0.00  0.00    +0.081 C 
ATOM     14  S   LIG    1       54.615  55.245  42.054  0.00  0.00    -0.117 S 
ATOM     15  C   LIG    1       54.574  56.679  41.012  0.00  0.00    +0.152 C 
ENDBRANCH   8   9
ENDBRANCH   5   6
TORSDOF 4
ENDMDL
