MODEL 4
REMARK VINA RESULT:    -7.694      5.029      9.285
REMARK INTER + INTRA:         -10.201
REMARK INTER:                  -9.925
REMARK INTRA:                  -0.276
REMARK UNBOUND:                -0.708
REMARK  Name = ligand_1
REMARK                            x       y       z     vdW  Elec       q    Type
REMARK                         _______ _______ _______ _____ _____    ______ ____
ROOT
ATOM      2  N   LIG    1       50.976  62.391  37.193  0.00  0.00    -0.305 N 
ATOM      3  C   LIG    1       50.059  61.439  36.573  0.00  0.00    +0.108 C 
ATOM      4  C   LIG    1       49.605  60.424  37.627  0.00  0.00    +0.094 C 
ATOM      5  N   LIG    1       49.079  61.125  38.809  0.00  0.00    -0.270 NA
ATOM     18  C   LIG    1       49.989  62.087  39.416  0.00  0.00    +0.094 C 
ATOM     19  C   LIG    1       50.435  63.099  38.363  0.00  0.00    +0.108 C 
ENDROOT
BRANCH   2   1
ATOM      1  C   LIG    1       51.795  63.162  36.296  0.00  0.00    +0.051 A 
ATOM     20  C   LIG    1       51.254  63.894  35.213  0.00  0.00    +0.031 A 
ATOM     21  C   LIG    1       49.906  63.814  34.874  0.00  0.00    +0.003 A 
ATOM     22  C   LIG    1       49.400  64.541  33.800  0.00  0.00    +0.000 A 
ATOM     23  C   LIG    1       50.233  65.361  33.036  0.00  0.00    +0.002 A 
ATOM     24  C   LIG    1       51.582  65.454  33.362  0.00  0.00    +0.019 A 
ATOM     25  C   LIG    1       52.082  64.728  34.438  0.00  0.00    +0.082 A 
ATOM     26  N   LIG    1       53.394  64.832  34.713  0.00  0.00    -0.241 NA
ATOM     27  C   LIG    1       53.952  64.146  35.732  0.00  0.00    +0.154 A 
ATOM     32  C   LIG    1       53.169  63.315  36.549  0.00  0.00    +0.038 A 
BRANCH  27  28
ATOM     28  C   LIG    1       55.424  64.395  35.920  0.00  0.00    +0.435 C 
ATOM     29  F   LIG    1       56.079  63.282  35.656  0.00  0.00    -0.164 F 
ATOM     30  F   LIG    1       55.756  64.863  37.109  0.00  0.00    -0.164 F 
ATOM     31  F   LIG    1       55.771  65.283  35.013  0.00  0.00    -0.164 F 
ENDBRANCH  27  28
ENDBRANCH   2   1
BRANCH   5   6
ATOM      6  C   LIG    1       48.668  60.139  39.847  0.00  0.00    +0.077 C 
ATOM      7  C   LIG    1       49.453  58.821  39.759  0.00  0.00    +0.044 C 
ATOM      8  C   LIG    1       49.415  58.252  41.177  0.00  0.00    +0.150 C 
ATOM     16  N   LIG    1       49.264  59.426  42.030  0.00  0.00    -0.209 NA
ATOM     17  C   LIG    1       48.988  60.635  41.266  0.00  0.00    +0.105 C 
BRANCH   8   9
ATOM      9  C   LIG    1       50.625  57.402  41.518  0.00  0.00    +0.242 C 
ATOM     10  O   LIG    1       51.754  57.870  41.372  0.00  0.00    -0.273 OA
ATOM     11  N   LIG    1       50.387  56.180  42.012  0.00  0.00    -0.268 N 
ATOM     12  C   LIG    1       49.011  55.684  42.150  0.00  0.00    +0.106 C 
ATOM     13  C   LIG    1       48.971  54.275  42.751  0.00  0.00    +0.081 C 
ATOM     14  S   LIG    1       50.580  53.675  42.541  0.00  0.00    -0.117 S 
ATOM     15  C   LIG    1       51.423  55.232  42.445  0.00  0.00    +0.152 C 
ENDBRANCH   8   9
ENDBRANCH   5   6
TORSDOF 4
ENDMDL
