MODEL 2
REMARK VINA RESULT:    -7.965      5.455      9.847
REMARK INTER + INTRA:         -10.609
REMARK INTER:                  -9.818
REMARK INTRA:                  -0.790
REMARK UNBOUND:                -0.781
REMARK  Name = ligand_1
REMARK                            x       y       z     vdW  Elec       q    Type
REMARK                         _______ _______ _______ _____ _____    ______ ____
ROOT
ATOM      2  N   LIG    1       51.030  62.421  37.608  0.00  0.00    -0.305 N 
ATOM      3  C   LIG    1       50.560  63.222  38.735  0.00  0.00    +0.108 C 
ATOM      4  C   LIG    1       49.466  62.447  39.477  0.00  0.00    +0.094 C 
ATOM      5  N   LIG    1       49.948  61.100  39.822  0.00  0.00    -0.270 NA
ATOM     18  C   LIG    1       50.432  60.308  38.699  0.00  0.00    +0.094 C 
ATOM     19  C   LIG    1       51.525  61.083  37.965  0.00  0.00    +0.108 C 
ENDROOT
BRANCH   2   1
ATOM      1  C   LIG    1       51.757  63.126  36.587  0.00  0.00    +0.051 A 
ATOM     20  C   LIG    1       51.117  63.753  35.493  0.00  0.00    +0.031 A 
ATOM     21  C   LIG    1       49.748  63.623  35.271  0.00  0.00    +0.003 A 
ATOM     22  C   LIG    1       49.143  64.247  34.184  0.00  0.00    +0.000 A 
ATOM     23  C   LIG    1       49.893  65.013  33.290  0.00  0.00    +0.002 A 
ATOM     24  C   LIG    1       51.262  65.156  33.498  0.00  0.00    +0.019 A 
ATOM     25  C   LIG    1       51.861  64.532  34.588  0.00  0.00    +0.082 A 
ATOM     26  N   LIG    1       53.187  64.681  34.747  0.00  0.00    -0.241 NA
ATOM     27  C   LIG    1       53.840  64.095  35.772  0.00  0.00    +0.154 A 
ATOM     32  C   LIG    1       53.143  63.323  36.715  0.00  0.00    +0.038 A 
BRANCH  27  28
ATOM     28  C   LIG    1       55.316  64.383  35.820  0.00  0.00    +0.435 C 
ATOM     29  F   LIG    1       55.970  63.314  35.411  0.00  0.00    -0.164 F 
ATOM     30  F   LIG    1       55.760  64.782  36.997  0.00  0.00    -0.164 F 
ATOM     31  F   LIG    1       55.538  65.341  34.945  0.00  0.00    -0.164 F 
ENDBRANCH  27  28
ENDBRANCH   2   1
BRANCH   5   6
ATOM      6  C   LIG    1       48.873  60.335  40.514  0.00  0.00    +0.077 C 
ATOM      7  C   LIG    1       48.559  58.997  39.828  0.00  0.00    +0.044 C 
ATOM      8  C   LIG    1       48.000  58.112  40.942  0.00  0.00    +0.150 C 
ATOM     16  N   LIG    1       48.599  58.648  42.159  0.00  0.00    -0.209 NA
ATOM     17  C   LIG    1       49.297  59.905  41.928  0.00  0.00    +0.105 C 
BRANCH   8   9
ATOM      9  C   LIG    1       48.270  56.634  40.730  0.00  0.00    +0.242 C 
ATOM     10  O   LIG    1       49.352  56.160  41.071  0.00  0.00    -0.273 OA
ATOM     11  N   LIG    1       47.271  55.905  40.213  0.00  0.00    -0.268 N 
ATOM     12  C   LIG    1       46.007  56.541  39.820  0.00  0.00    +0.106 C 
ATOM     13  C   LIG    1       45.003  55.521  39.271  0.00  0.00    +0.081 C 
ATOM     14  S   LIG    1       45.968  54.139  38.881  0.00  0.00    -0.117 S 
ATOM     15  C   LIG    1       47.323  54.455  39.979  0.00  0.00    +0.152 C 
ENDBRANCH   8   9
ENDBRANCH   5   6
TORSDOF 4
ENDMDL
