MODEL 3
REMARK VINA RESULT:    -7.720      4.591      8.837
REMARK INTER + INTRA:         -10.213
REMARK INTER:                  -9.620
REMARK INTRA:                  -0.593
REMARK UNBOUND:                -0.687
REMARK  Name = ligand_1
REMARK                            x       y       z     vdW  Elec       q    Type
REMARK                         _______ _______ _______ _____ _____    ______ ____
ROOT
ATOM      2  N   LIG    1       50.727  63.042  36.607  0.00  0.00    -0.305 N 
ATOM      3  C   LIG    1       49.387  62.699  36.140  0.00  0.00    +0.108 C 
ATOM      4  C   LIG    1       48.873  61.496  36.937  0.00  0.00    +0.094 C 
ATOM      5  N   LIG    1       48.987  61.761  38.380  0.00  0.00    -0.270 NA
ATOM     18  C   LIG    1       50.322  62.119  38.841  0.00  0.00    +0.094 C 
ATOM     19  C   LIG    1       50.828  63.321  38.047  0.00  0.00    +0.108 C 
ENDROOT
BRANCH   2   1
ATOM      1  C   LIG    1       51.512  63.873  35.732  0.00  0.00    +0.051 A 
ATOM     20  C   LIG    1       52.923  63.802  35.680  0.00  0.00    +0.031 A 
ATOM     21  C   LIG    1       53.651  63.007  36.563  0.00  0.00    +0.003 A 
ATOM     22  C   LIG    1       55.040  62.959  36.493  0.00  0.00    +0.000 A 
ATOM     23  C   LIG    1       55.735  63.709  35.542  0.00  0.00    +0.002 A 
ATOM     24  C   LIG    1       55.024  64.506  34.652  0.00  0.00    +0.019 A 
ATOM     25  C   LIG    1       53.635  64.549  34.723  0.00  0.00    +0.082 A 
ATOM     26  N   LIG    1       52.984  65.342  33.856  0.00  0.00    -0.241 NA
ATOM     27  C   LIG    1       51.639  65.445  33.874  0.00  0.00    +0.154 A 
ATOM     32  C   LIG    1       50.878  64.707  34.795  0.00  0.00    +0.038 A 
BRANCH  27  28
ATOM     28  C   LIG    1       51.067  66.354  32.821  0.00  0.00    +0.435 C 
ATOM     29  F   LIG    1       51.697  66.135  31.684  0.00  0.00    -0.164 F 
ATOM     30  F   LIG    1       51.091  67.637  33.129  0.00  0.00    -0.164 F 
ATOM     31  F   LIG    1       49.813  65.990  32.655  0.00  0.00    -0.164 F 
ENDBRANCH  27  28
ENDBRANCH   2   1
BRANCH   5   6
ATOM      6  C   LIG    1       48.517  60.579  39.155  0.00  0.00    +0.077 C 
ATOM      7  C   LIG    1       49.527  59.421  39.142  0.00  0.00    +0.044 C 
ATOM      8  C   LIG    1       49.242  58.644  40.427  0.00  0.00    +0.150 C 
ATOM     16  N   LIG    1       48.671  59.639  41.328  0.00  0.00    -0.209 NA
ATOM     17  C   LIG    1       48.378  60.896  40.653  0.00  0.00    +0.105 C 
BRANCH   8   9
ATOM      9  C   LIG    1       50.463  57.941  40.990  0.00  0.00    +0.242 C 
ATOM     10  O   LIG    1       51.562  58.489  40.924  0.00  0.00    -0.273 OA
ATOM     11  N   LIG    1       50.260  56.755  41.582  0.00  0.00    -0.268 N 
ATOM     12  C   LIG    1       48.919  56.156  41.616  0.00  0.00    +0.106 C 
ATOM     13  C   LIG    1       48.914  54.814  42.355  0.00  0.00    +0.081 C 
ATOM     14  S   LIG    1       50.578  54.340  42.391  0.00  0.00    -0.117 S 
ATOM     15  C   LIG    1       51.305  55.949  42.226  0.00  0.00    +0.152 C 
ENDBRANCH   8   9
ENDBRANCH   5   6
TORSDOF 4
ENDMDL
