MODEL 5
REMARK VINA RESULT:    -7.693      4.580      8.830
REMARK INTER + INTRA:         -10.200
REMARK INTER:                  -9.610
REMARK INTRA:                  -0.590
REMARK UNBOUND:                -0.708
REMARK  Name = ligand_1
REMARK                            x       y       z     vdW  Elec       q    Type
REMARK                         _______ _______ _______ _____ _____    ______ ____
ROOT
ATOM      2  N   LIG    1       50.752  63.046  36.616  0.00  0.00    -0.305 N 
ATOM      3  C   LIG    1       49.415  62.672  36.162  0.00  0.00    +0.108 C 
ATOM      4  C   LIG    1       48.918  61.486  36.995  0.00  0.00    +0.094 C 
ATOM      5  N   LIG    1       49.031  61.795  38.429  0.00  0.00    -0.270 NA
ATOM     18  C   LIG    1       50.361  62.184  38.878  0.00  0.00    +0.094 C 
ATOM     19  C   LIG    1       50.850  63.369  38.048  0.00  0.00    +0.108 C 
ENDROOT
BRANCH   2   1
ATOM      1  C   LIG    1       51.524  63.861  35.717  0.00  0.00    +0.051 A 
ATOM     20  C   LIG    1       52.936  63.813  35.670  0.00  0.00    +0.031 A 
ATOM     21  C   LIG    1       53.675  63.061  36.580  0.00  0.00    +0.003 A 
ATOM     22  C   LIG    1       55.066  63.035  36.515  0.00  0.00    +0.000 A 
ATOM     23  C   LIG    1       55.750  63.765  35.541  0.00  0.00    +0.002 A 
ATOM     24  C   LIG    1       55.027  64.520  34.623  0.00  0.00    +0.019 A 
ATOM     25  C   LIG    1       53.638  64.541  34.690  0.00  0.00    +0.082 A 
ATOM     26  N   LIG    1       52.975  65.294  33.796  0.00  0.00    -0.241 NA
ATOM     27  C   LIG    1       51.628  65.374  33.808  0.00  0.00    +0.154 A 
ATOM     32  C   LIG    1       50.878  64.653  34.751  0.00  0.00    +0.038 A 
BRANCH  27  28
ATOM     28  C   LIG    1       51.043  66.237  32.724  0.00  0.00    +0.435 C 
ATOM     29  F   LIG    1       49.747  66.008  32.653  0.00  0.00    -0.164 F 
ATOM     30  F   LIG    1       51.610  66.095  31.541  0.00  0.00    -0.164 F 
ATOM     31  F   LIG    1       51.203  67.484  33.114  0.00  0.00    -0.164 F 
ENDBRANCH  27  28
ENDBRANCH   2   1
BRANCH   5   6
ATOM      6  C   LIG    1       48.578  60.630  39.239  0.00  0.00    +0.077 C 
ATOM      7  C   LIG    1       49.562  59.451  39.187  0.00  0.00    +0.044 C 
ATOM      8  C   LIG    1       49.328  58.692  40.493  0.00  0.00    +0.150 C 
ATOM     16  N   LIG    1       48.824  59.707  41.411  0.00  0.00    -0.209 NA
ATOM     17  C   LIG    1       48.522  60.963  40.739  0.00  0.00    +0.105 C 
BRANCH   8   9
ATOM      9  C   LIG    1       50.562  57.969  40.999  0.00  0.00    +0.242 C 
ATOM     10  O   LIG    1       51.665  58.500  40.883  0.00  0.00    -0.273 OA
ATOM     11  N   LIG    1       50.367  56.786  41.599  0.00  0.00    -0.268 N 
ATOM     12  C   LIG    1       49.020  56.208  41.693  0.00  0.00    +0.106 C 
ATOM     13  C   LIG    1       49.027  54.865  42.431  0.00  0.00    +0.081 C 
ATOM     14  S   LIG    1       50.683  54.365  42.393  0.00  0.00    -0.117 S 
ATOM     15  C   LIG    1       51.427  55.962  42.195  0.00  0.00    +0.152 C 
ENDBRANCH   8   9
ENDBRANCH   5   6
TORSDOF 4
ENDMDL
