MODEL 3
REMARK VINA RESULT:    -7.690      4.992      9.314
REMARK INTER + INTRA:         -10.195
REMARK INTER:                  -9.808
REMARK INTRA:                  -0.387
REMARK UNBOUND:                -0.707
REMARK  Name = ligand_1
REMARK                            x       y       z     vdW  Elec       q    Type
REMARK                         _______ _______ _______ _____ _____    ______ ____
ROOT
ATOM      2  N   LIG    1       50.945  62.356  37.167  0.00  0.00    -0.305 N 
ATOM      3  C   LIG    1       50.177  61.279  36.548  0.00  0.00    +0.108 C 
ATOM      4  C   LIG    1       49.703  60.313  37.639  0.00  0.00    +0.094 C 
ATOM      5  N   LIG    1       49.003  61.054  38.699  0.00  0.00    -0.270 NA
ATOM     18  C   LIG    1       49.765  62.139  39.304  0.00  0.00    +0.094 C 
ATOM     19  C   LIG    1       50.231  63.101  38.214  0.00  0.00    +0.108 C 
ENDROOT
BRANCH   2   1
ATOM      1  C   LIG    1       51.784  63.124  36.287  0.00  0.00    +0.051 A 
ATOM     20  C   LIG    1       51.267  63.875  35.205  0.00  0.00    +0.031 A 
ATOM     21  C   LIG    1       49.921  63.818  34.850  0.00  0.00    +0.003 A 
ATOM     22  C   LIG    1       49.439  64.563  33.778  0.00  0.00    +0.000 A 
ATOM     23  C   LIG    1       50.291  65.379  33.032  0.00  0.00    +0.002 A 
ATOM     24  C   LIG    1       51.638  65.450  33.375  0.00  0.00    +0.019 A 
ATOM     25  C   LIG    1       52.115  64.705  34.449  0.00  0.00    +0.082 A 
ATOM     26  N   LIG    1       53.424  64.788  34.740  0.00  0.00    -0.241 NA
ATOM     27  C   LIG    1       53.962  64.084  35.758  0.00  0.00    +0.154 A 
ATOM     32  C   LIG    1       53.158  63.256  36.557  0.00  0.00    +0.038 A 
BRANCH  27  28
ATOM     28  C   LIG    1       55.435  64.311  35.966  0.00  0.00    +0.435 C 
ATOM     29  F   LIG    1       56.082  63.212  35.634  0.00  0.00    -0.164 F 
ATOM     30  F   LIG    1       55.765  64.700  37.183  0.00  0.00    -0.164 F 
ATOM     31  F   LIG    1       55.791  65.251  35.117  0.00  0.00    -0.164 F 
ENDBRANCH  27  28
ENDBRANCH   2   1
BRANCH   5   6
ATOM      6  C   LIG    1       48.571  60.119  39.776  0.00  0.00    +0.077 C 
ATOM      7  C   LIG    1       49.344  58.792  39.756  0.00  0.00    +0.044 C 
ATOM      8  C   LIG    1       49.285  58.288  41.198  0.00  0.00    +0.150 C 
ATOM     16  N   LIG    1       49.136  59.500  41.995  0.00  0.00    -0.209 NA
ATOM     17  C   LIG    1       48.880  60.676  41.175  0.00  0.00    +0.105 C 
BRANCH   8   9
ATOM      9  C   LIG    1       50.483  57.443  41.590  0.00  0.00    +0.242 C 
ATOM     10  O   LIG    1       51.611  57.934  41.547  0.00  0.00    -0.273 OA
ATOM     11  N   LIG    1       50.232  56.197  42.015  0.00  0.00    -0.268 N 
ATOM     12  C   LIG    1       48.859  55.675  42.031  0.00  0.00    +0.106 C 
ATOM     13  C   LIG    1       48.802  54.241  42.568  0.00  0.00    +0.081 C 
ATOM     14  S   LIG    1       50.434  53.675  42.451  0.00  0.00    -0.117 S 
ATOM     15  C   LIG    1       51.252  55.248  42.482  0.00  0.00    +0.152 C 
ENDBRANCH   8   9
ENDBRANCH   5   6
TORSDOF 4
ENDMDL
