MODEL 8
REMARK VINA RESULT:    -7.114      4.261      5.719
REMARK INTER + INTRA:          -9.437
REMARK INTER:                  -8.826
REMARK INTRA:                  -0.611
REMARK UNBOUND:                -0.659
REMARK  Name = ligand_1
REMARK                            x       y       z     vdW  Elec       q    Type
REMARK                         _______ _______ _______ _____ _____    ______ ____
ROOT
ATOM      2  N   LIG    1       52.279  59.387  38.676  0.00  0.00    -0.305 N 
ATOM      3  C   LIG    1       51.361  59.295  37.544  0.00  0.00    +0.108 C 
ATOM      4  C   LIG    1       51.778  60.316  36.480  0.00  0.00    +0.094 C 
ATOM      5  N   LIG    1       53.202  60.148  36.150  0.00  0.00    -0.270 NA
ATOM     18  C   LIG    1       54.114  60.222  37.283  0.00  0.00    +0.094 C 
ATOM     19  C   LIG    1       53.698  59.200  38.338  0.00  0.00    +0.108 C 
ENDROOT
BRANCH   2   1
ATOM      1  C   LIG    1       51.827  58.799  39.909  0.00  0.00    +0.051 A 
ATOM     20  C   LIG    1       50.665  59.243  40.582  0.00  0.00    +0.031 A 
ATOM     21  C   LIG    1       49.952  60.361  40.155  0.00  0.00    +0.003 A 
ATOM     22  C   LIG    1       48.814  60.780  40.839  0.00  0.00    +0.000 A 
ATOM     23  C   LIG    1       48.365  60.094  41.968  0.00  0.00    +0.002 A 
ATOM     24  C   LIG    1       49.063  58.973  42.406  0.00  0.00    +0.019 A 
ATOM     25  C   LIG    1       50.198  58.556  41.718  0.00  0.00    +0.082 A 
ATOM     26  N   LIG    1       50.854  57.479  42.181  0.00  0.00    -0.241 NA
ATOM     27  C   LIG    1       51.971  57.025  41.574  0.00  0.00    +0.154 A 
ATOM     32  C   LIG    1       52.469  57.660  40.426  0.00  0.00    +0.038 A 
BRANCH  27  28
ATOM     28  C   LIG    1       52.568  55.794  42.202  0.00  0.00    +0.435 C 
ATOM     29  F   LIG    1       51.595  55.062  42.706  0.00  0.00    -0.164 F 
ATOM     30  F   LIG    1       53.493  56.035  43.112  0.00  0.00    -0.164 F 
ATOM     31  F   LIG    1       53.116  55.105  41.224  0.00  0.00    -0.164 F 
ENDBRANCH  27  28
ENDBRANCH   2   1
BRANCH   5   6
ATOM      6  C   LIG    1       53.616  61.161  35.139  0.00  0.00    +0.077 C 
ATOM      7  C   LIG    1       52.534  62.222  34.884  0.00  0.00    +0.044 C 
ATOM      8  C   LIG    1       53.304  63.454  34.407  0.00  0.00    +0.150 C 
ATOM     16  N   LIG    1       54.625  63.304  35.007  0.00  0.00    -0.209 NA
ATOM     17  C   LIG    1       54.810  61.998  35.626  0.00  0.00    +0.105 C 
BRANCH   8   9
ATOM      9  C   LIG    1       52.621  64.763  34.754  0.00  0.00    +0.242 C 
ATOM     10  O   LIG    1       52.686  65.195  35.905  0.00  0.00    -0.273 OA
ATOM     11  N   LIG    1       52.010  65.412  33.753  0.00  0.00    -0.268 N 
ATOM     12  C   LIG    1       51.964  64.831  32.404  0.00  0.00    +0.106 C 
ATOM     13  C   LIG    1       51.236  65.747  31.415  0.00  0.00    +0.081 C 
ATOM     14  S   LIG    1       50.342  66.836  32.419  0.00  0.00    -0.117 S 
ATOM     15  C   LIG    1       51.339  66.712  33.880  0.00  0.00    +0.152 C 
ENDBRANCH   8   9
ENDBRANCH   5   6
TORSDOF 4
ENDMDL
