MODEL 1
REMARK VINA RESULT:    -8.459      0.000      0.000
REMARK INTER + INTRA:         -11.124
REMARK INTER:                 -10.437
REMARK INTRA:                  -0.687
REMARK UNBOUND:                -0.687
REMARK  Name = ligand_1
REMARK                            x       y       z     vdW  Elec       q    Type
REMARK                         _______ _______ _______ _____ _____    ______ ____
ROOT
ATOM      2  N   LIG    1       50.186  61.926  38.323  0.00  0.00    -0.305 N 
ATOM      3  C   LIG    1       50.385  63.278  38.837  0.00  0.00    +0.108 C 
ATOM      4  C   LIG    1       51.610  63.896  38.155  0.00  0.00    +0.094 C 
ATOM      5  N   LIG    1       51.480  63.793  36.693  0.00  0.00    -0.270 NA
ATOM     18  C   LIG    1       51.265  62.445  36.183  0.00  0.00    +0.094 C 
ATOM     19  C   LIG    1       50.040  61.835  36.862  0.00  0.00    +0.108 C 
ENDROOT
BRANCH   2   1
ATOM      1  C   LIG    1       49.345  61.064  39.110  0.00  0.00    +0.051 A 
ATOM     20  C   LIG    1       49.858  59.987  39.869  0.00  0.00    +0.031 A 
ATOM     21  C   LIG    1       51.199  59.617  39.805  0.00  0.00    +0.003 A 
ATOM     22  C   LIG    1       51.677  58.550  40.559  0.00  0.00    +0.000 A 
ATOM     23  C   LIG    1       50.824  57.823  41.392  0.00  0.00    +0.002 A 
ATOM     24  C   LIG    1       49.482  58.180  41.470  0.00  0.00    +0.019 A 
ATOM     25  C   LIG    1       49.009  59.250  40.716  0.00  0.00    +0.082 A 
ATOM     26  N   LIG    1       47.703  59.556  40.807  0.00  0.00    -0.241 NA
ATOM     27  C   LIG    1       47.170  60.571  40.095  0.00  0.00    +0.154 A 
ATOM     32  C   LIG    1       47.975  61.350  39.250  0.00  0.00    +0.038 A 
BRANCH  27  28
ATOM     28  C   LIG    1       45.702  60.796  40.332  0.00  0.00    +0.435 C 
ATOM     29  F   LIG    1       45.068  60.698  39.180  0.00  0.00    -0.164 F 
ATOM     30  F   LIG    1       45.410  61.935  40.932  0.00  0.00    -0.164 F 
ATOM     31  F   LIG    1       45.291  59.807  41.095  0.00  0.00    -0.164 F 
ENDBRANCH  27  28
ENDBRANCH   2   1
BRANCH   5   6
ATOM      6  C   LIG    1       52.686  64.364  36.031  0.00  0.00    +0.077 C 
ATOM      7  C   LIG    1       53.968  64.162  36.854  0.00  0.00    +0.044 C 
ATOM      8  C   LIG    1       55.096  64.172  35.823  0.00  0.00    +0.150 C 
ATOM     16  N   LIG    1       54.458  63.721  34.590  0.00  0.00    -0.209 NA
ATOM     17  C   LIG    1       53.008  63.644  34.711  0.00  0.00    +0.105 C 
BRANCH   8   9
ATOM      9  C   LIG    1       56.293  63.334  36.231  0.00  0.00    +0.242 C 
ATOM     10  O   LIG    1       56.466  62.231  35.714  0.00  0.00    -0.273 OA
ATOM     11  N   LIG    1       57.137  63.877  37.119  0.00  0.00    -0.268 N 
ATOM     12  C   LIG    1       56.862  65.197  37.702  0.00  0.00    +0.106 C 
ATOM     13  C   LIG    1       57.963  65.630  38.676  0.00  0.00    +0.081 C 
ATOM     14  S   LIG    1       58.801  64.164  39.053  0.00  0.00    -0.117 S 
ATOM     15  C   LIG    1       58.373  63.244  37.599  0.00  0.00    +0.152 C 
ENDBRANCH   8   9
ENDBRANCH   5   6
TORSDOF 4
ENDMDL
