MODEL 6
REMARK VINA RESULT:    -7.021      5.409      9.464
REMARK INTER + INTRA:          -9.350
REMARK INTER:                  -8.702
REMARK INTRA:                  -0.648
REMARK UNBOUND:                -0.687
REMARK  Name = ligand_1
REMARK                            x       y       z     vdW  Elec       q    Type
REMARK                         _______ _______ _______ _____ _____    ______ ____
ROOT
ATOM      2  N   LIG    1       52.447  59.269  38.720  0.00  0.00    -0.305 N 
ATOM      3  C   LIG    1       51.545  59.172  37.577  0.00  0.00    +0.108 C 
ATOM      4  C   LIG    1       51.947  60.221  36.534  0.00  0.00    +0.094 C 
ATOM      5  N   LIG    1       53.378  60.095  36.217  0.00  0.00    -0.270 NA
ATOM     18  C   LIG    1       54.275  60.175  37.362  0.00  0.00    +0.094 C 
ATOM     19  C   LIG    1       53.874  59.126  38.396  0.00  0.00    +0.108 C 
ENDROOT
BRANCH   2   1
ATOM      1  C   LIG    1       51.997  58.650  39.939  0.00  0.00    +0.051 A 
ATOM     20  C   LIG    1       50.841  59.083  40.629  0.00  0.00    +0.031 A 
ATOM     21  C   LIG    1       50.134  60.217  40.238  0.00  0.00    +0.003 A 
ATOM     22  C   LIG    1       49.002  60.624  40.939  0.00  0.00    +0.000 A 
ATOM     23  C   LIG    1       48.554  59.909  42.050  0.00  0.00    +0.002 A 
ATOM     24  C   LIG    1       49.247  58.772  42.454  0.00  0.00    +0.019 A 
ATOM     25  C   LIG    1       50.376  58.367  41.749  0.00  0.00    +0.082 A 
ATOM     26  N   LIG    1       51.027  57.273  42.178  0.00  0.00    -0.241 NA
ATOM     27  C   LIG    1       52.138  56.829  41.553  0.00  0.00    +0.154 A 
ATOM     32  C   LIG    1       52.634  57.493  40.420  0.00  0.00    +0.038 A 
BRANCH  27  28
ATOM     28  C   LIG    1       52.729  55.578  42.143  0.00  0.00    +0.435 C 
ATOM     29  F   LIG    1       51.748  54.785  42.526  0.00  0.00    -0.164 F 
ATOM     30  F   LIG    1       53.578  55.784  43.133  0.00  0.00    -0.164 F 
ATOM     31  F   LIG    1       53.370  54.971  41.166  0.00  0.00    -0.164 F 
ENDBRANCH  27  28
ENDBRANCH   2   1
BRANCH   5   6
ATOM      6  C   LIG    1       53.776  61.136  35.228  0.00  0.00    +0.077 C 
ATOM      7  C   LIG    1       52.660  62.157  34.959  0.00  0.00    +0.044 C 
ATOM      8  C   LIG    1       53.393  63.422  34.513  0.00  0.00    +0.150 C 
ATOM     16  N   LIG    1       54.704  63.317  35.143  0.00  0.00    -0.209 NA
ATOM     17  C   LIG    1       54.925  62.012  35.752  0.00  0.00    +0.105 C 
BRANCH   8   9
ATOM      9  C   LIG    1       52.651  64.701  34.857  0.00  0.00    +0.242 C 
ATOM     10  O   LIG    1       52.665  65.116  36.015  0.00  0.00    -0.273 OA
ATOM     11  N   LIG    1       52.049  65.342  33.847  0.00  0.00    -0.268 N 
ATOM     12  C   LIG    1       52.066  64.781  32.489  0.00  0.00    +0.106 C 
ATOM     13  C   LIG    1       51.335  65.686  31.491  0.00  0.00    +0.081 C 
ATOM     14  S   LIG    1       50.371  66.726  32.482  0.00  0.00    -0.117 S 
ATOM     15  C   LIG    1       51.326  66.615  33.972  0.00  0.00    +0.152 C 
ENDBRANCH   8   9
ENDBRANCH   5   6
TORSDOF 4
ENDMDL
