MODEL 5
REMARK VINA RESULT:    -5.788      6.359      7.384
REMARK INTER + INTRA:          -7.977
REMARK INTER:                  -7.602
REMARK INTRA:                  -0.375
REMARK UNBOUND:                -0.835
REMARK  Name = ligand_1
REMARK                            x       y       z     vdW  Elec       q    Type
REMARK                         _______ _______ _______ _____ _____    ______ ____
ROOT
ATOM      2  N   LIG    1       51.532  61.970  33.056  0.00  0.00    -0.305 N 
ATOM      3  C   LIG    1       51.502  61.854  31.601  0.00  0.00    +0.108 C 
ATOM      4  C   LIG    1       51.194  60.401  31.223  0.00  0.00    +0.094 C 
ATOM      5  N   LIG    1       49.978  59.946  31.915  0.00  0.00    -0.270 NA
ATOM     18  C   LIG    1       50.004  60.078  33.365  0.00  0.00    +0.094 C 
ATOM     19  C   LIG    1       50.306  61.528  33.738  0.00  0.00    +0.108 C 
ENDROOT
BRANCH   2   1
ATOM      1  C   LIG    1       52.179  63.141  33.587  0.00  0.00    +0.051 A 
ATOM     20  C   LIG    1       51.667  64.445  33.393  0.00  0.00    +0.031 A 
ATOM     21  C   LIG    1       50.570  64.688  32.571  0.00  0.00    +0.003 A 
ATOM     22  C   LIG    1       50.089  65.982  32.394  0.00  0.00    +0.000 A 
ATOM     23  C   LIG    1       50.698  67.065  33.031  0.00  0.00    +0.002 A 
ATOM     24  C   LIG    1       51.794  66.840  33.858  0.00  0.00    +0.019 A 
ATOM     25  C   LIG    1       52.269  65.544  34.034  0.00  0.00    +0.082 A 
ATOM     26  N   LIG    1       53.339  65.368  34.828  0.00  0.00    -0.241 NA
ATOM     27  C   LIG    1       53.864  64.143  35.035  0.00  0.00    +0.154 A 
ATOM     32  C   LIG    1       53.291  63.010  34.436  0.00  0.00    +0.038 A 
BRANCH  27  28
ATOM     28  C   LIG    1       55.042  64.117  35.970  0.00  0.00    +0.435 C 
ATOM     29  F   LIG    1       54.598  64.096  37.211  0.00  0.00    -0.164 F 
ATOM     30  F   LIG    1       55.903  65.103  35.798  0.00  0.00    -0.164 F 
ATOM     31  F   LIG    1       55.665  62.979  35.754  0.00  0.00    -0.164 F 
ENDBRANCH  27  28
ENDBRANCH   2   1
BRANCH   5   6
ATOM      6  C   LIG    1       49.698  58.524  31.572  0.00  0.00    +0.077 C 
ATOM      7  C   LIG    1       50.768  57.911  30.655  0.00  0.00    +0.044 C 
ATOM      8  C   LIG    1       50.714  56.411  30.946  0.00  0.00    +0.150 C 
ATOM     16  N   LIG    1       50.211  56.329  32.313  0.00  0.00    -0.209 NA
ATOM     17  C   LIG    1       49.748  57.617  32.813  0.00  0.00    +0.105 C 
BRANCH   8   9
ATOM      9  C   LIG    1       52.044  55.709  30.742  0.00  0.00    +0.242 C 
ATOM     10  O   LIG    1       52.940  55.856  31.573  0.00  0.00    -0.273 OA
ATOM     11  N   LIG    1       52.151  54.916  29.667  0.00  0.00    -0.268 N 
ATOM     12  C   LIG    1       51.041  54.797  28.713  0.00  0.00    +0.106 C 
ATOM     13  C   LIG    1       51.373  53.826  27.573  0.00  0.00    +0.081 C 
ATOM     14  S   LIG    1       53.096  53.676  27.628  0.00  0.00    -0.117 S 
ATOM     15  C   LIG    1       53.337  54.119  29.327  0.00  0.00    +0.152 C 
ENDBRANCH   8   9
ENDBRANCH   5   6
TORSDOF 4
ENDMDL
