MODEL 3
REMARK VINA RESULT:    -7.589      2.860      3.882
REMARK INTER + INTRA:         -10.173
REMARK INTER:                  -9.583
REMARK INTRA:                  -0.590
REMARK UNBOUND:                -0.809
REMARK  Name = ligand_1
REMARK                            x       y       z     vdW  Elec       q    Type
REMARK                         _______ _______ _______ _____ _____    ______ ____
ROOT
ATOM      2  N   LIG    1       50.750  63.029  36.653  0.00  0.00    -0.305 N 
ATOM      3  C   LIG    1       49.421  62.649  36.183  0.00  0.00    +0.108 C 
ATOM      4  C   LIG    1       48.927  61.450  37.000  0.00  0.00    +0.094 C 
ATOM      5  N   LIG    1       49.023  61.746  38.438  0.00  0.00    -0.270 NA
ATOM     18  C   LIG    1       50.347  62.141  38.902  0.00  0.00    +0.094 C 
ATOM     19  C   LIG    1       50.833  63.339  38.088  0.00  0.00    +0.108 C 
ENDROOT
BRANCH   2   1
ATOM      1  C   LIG    1       51.523  63.860  35.769  0.00  0.00    +0.051 A 
ATOM     20  C   LIG    1       52.936  63.825  35.734  0.00  0.00    +0.031 A 
ATOM     21  C   LIG    1       53.674  63.069  36.642  0.00  0.00    +0.003 A 
ATOM     22  C   LIG    1       55.065  63.056  36.589  0.00  0.00    +0.000 A 
ATOM     23  C   LIG    1       55.751  63.801  35.629  0.00  0.00    +0.002 A 
ATOM     24  C   LIG    1       55.030  64.560  34.713  0.00  0.00    +0.019 A 
ATOM     25  C   LIG    1       53.640  64.568  34.768  0.00  0.00    +0.082 A 
ATOM     26  N   LIG    1       52.979  65.325  33.875  0.00  0.00    -0.241 NA
ATOM     27  C   LIG    1       51.632  65.393  33.877  0.00  0.00    +0.154 A 
ATOM     32  C   LIG    1       50.879  64.657  34.806  0.00  0.00    +0.038 A 
BRANCH  27  28
ATOM     28  C   LIG    1       51.049  66.264  32.796  0.00  0.00    +0.435 C 
ATOM     29  F   LIG    1       49.755  66.029  32.716  0.00  0.00    -0.164 F 
ATOM     30  F   LIG    1       51.623  66.133  31.616  0.00  0.00    -0.164 F 
ATOM     31  F   LIG    1       51.201  67.508  33.197  0.00  0.00    -0.164 F 
ENDBRANCH  27  28
ENDBRANCH   2   1
BRANCH   5   6
ATOM      6  C   LIG    1       48.574  60.568  39.232  0.00  0.00    +0.077 C 
ATOM      7  C   LIG    1       49.575  59.404  39.188  0.00  0.00    +0.044 C 
ATOM      8  C   LIG    1       49.329  58.632  40.484  0.00  0.00    +0.150 C 
ATOM     16  N   LIG    1       48.796  59.634  41.401  0.00  0.00    -0.209 NA
ATOM     17  C   LIG    1       48.488  60.891  40.733  0.00  0.00    +0.105 C 
BRANCH   8   9
ATOM      9  C   LIG    1       50.565  57.923  41.007  0.00  0.00    +0.242 C 
ATOM     10  O   LIG    1       51.663  58.470  40.914  0.00  0.00    -0.273 OA
ATOM     11  N   LIG    1       50.377  56.733  41.594  0.00  0.00    -0.268 N 
ATOM     12  C   LIG    1       49.036  56.135  41.661  0.00  0.00    +0.106 C 
ATOM     13  C   LIG    1       49.050  54.787  42.388  0.00  0.00    +0.081 C 
ATOM     14  S   LIG    1       50.714  54.311  42.374  0.00  0.00    -0.117 S 
ATOM     15  C   LIG    1       51.438  55.919  42.202  0.00  0.00    +0.152 C 
ENDBRANCH   8   9
ENDBRANCH   5   6
TORSDOF 4
ENDMDL
