MODEL 5
REMARK VINA RESULT:    -7.266      4.616      7.965
REMARK INTER + INTRA:          -9.671
REMARK INTER:                  -8.735
REMARK INTRA:                  -0.936
REMARK UNBOUND:                -0.707
REMARK  Name = ligand_1
REMARK                            x       y       z     vdW  Elec       q    Type
REMARK                         _______ _______ _______ _____ _____    ______ ____
ROOT
ATOM      2  N   LIG    1       49.155  61.912  36.322  0.00  0.00    -0.305 N 
ATOM      3  C   LIG    1       49.463  60.568  35.843  0.00  0.00    +0.108 C 
ATOM      4  C   LIG    1       49.872  59.695  37.034  0.00  0.00    +0.094 C 
ATOM      5  N   LIG    1       48.848  59.767  38.087  0.00  0.00    -0.270 NA
ATOM     18  C   LIG    1       48.530  61.111  38.552  0.00  0.00    +0.094 C 
ATOM     19  C   LIG    1       48.118  61.976  37.363  0.00  0.00    +0.108 C 
ENDROOT
BRANCH   2   1
ATOM      1  C   LIG    1       49.134  62.952  35.327  0.00  0.00    +0.051 A 
ATOM     20  C   LIG    1       50.227  63.824  35.116  0.00  0.00    +0.031 A 
ATOM     21  C   LIG    1       51.347  63.811  35.944  0.00  0.00    +0.003 A 
ATOM     22  C   LIG    1       52.407  64.684  35.717  0.00  0.00    +0.000 A 
ATOM     23  C   LIG    1       52.370  65.595  34.661  0.00  0.00    +0.002 A 
ATOM     24  C   LIG    1       51.260  65.621  33.823  0.00  0.00    +0.019 A 
ATOM     25  C   LIG    1       50.204  64.745  34.051  0.00  0.00    +0.082 A 
ATOM     26  N   LIG    1       49.142  64.810  33.230  0.00  0.00    -0.241 NA
ATOM     27  C   LIG    1       48.075  64.002  33.398  0.00  0.00    +0.154 A 
ATOM     32  C   LIG    1       48.054  63.052  34.432  0.00  0.00    +0.038 A 
BRANCH  27  28
ATOM     28  C   LIG    1       46.984  64.185  32.378  0.00  0.00    +0.435 C 
ATOM     29  F   LIG    1       46.556  62.997  31.999  0.00  0.00    -0.164 F 
ATOM     30  F   LIG    1       47.325  64.916  31.334  0.00  0.00    -0.164 F 
ATOM     31  F   LIG    1       45.991  64.784  32.999  0.00  0.00    -0.164 F 
ENDBRANCH  27  28
ENDBRANCH   2   1
BRANCH   5   6
ATOM      6  C   LIG    1       49.261  58.945  39.259  0.00  0.00    +0.077 C 
ATOM      7  C   LIG    1       50.457  58.031  38.951  0.00  0.00    +0.044 C 
ATOM      8  C   LIG    1       51.132  57.806  40.304  0.00  0.00    +0.150 C 
ATOM     16  N   LIG    1       50.781  58.991  41.080  0.00  0.00    -0.209 NA
ATOM     17  C   LIG    1       49.783  59.816  40.413  0.00  0.00    +0.105 C 
BRANCH   8   9
ATOM      9  C   LIG    1       52.626  57.565  40.200  0.00  0.00    +0.242 C 
ATOM     10  O   LIG    1       53.291  58.216  39.395  0.00  0.00    -0.273 OA
ATOM     11  N   LIG    1       53.155  56.668  41.044  0.00  0.00    -0.268 N 
ATOM     12  C   LIG    1       52.297  55.920  41.973  0.00  0.00    +0.106 C 
ATOM     13  C   LIG    1       53.110  54.965  42.854  0.00  0.00    +0.081 C 
ATOM     14  S   LIG    1       54.624  54.808  42.030  0.00  0.00    -0.117 S 
ATOM     15  C   LIG    1       54.583  56.334  41.128  0.00  0.00    +0.152 C 
ENDBRANCH   8   9
ENDBRANCH   5   6
TORSDOF 4
ENDMDL
