MODEL 1
REMARK VINA RESULT:    -8.504      0.000      0.000
REMARK INTER + INTRA:         -11.151
REMARK INTER:                 -10.492
REMARK INTRA:                  -0.659
REMARK UNBOUND:                -0.659
REMARK  Name = ligand_1
REMARK                            x       y       z     vdW  Elec       q    Type
REMARK                         _______ _______ _______ _____ _____    ______ ____
ROOT
ATOM      2  N   LIG    1       50.256  61.935  38.314  0.00  0.00    -0.305 N 
ATOM      3  C   LIG    1       50.414  63.298  38.813  0.00  0.00    +0.108 C 
ATOM      4  C   LIG    1       51.638  63.935  38.145  0.00  0.00    +0.094 C 
ATOM      5  N   LIG    1       51.536  63.809  36.682  0.00  0.00    -0.270 NA
ATOM     18  C   LIG    1       51.361  62.449  36.188  0.00  0.00    +0.094 C 
ATOM     19  C   LIG    1       50.139  61.821  36.853  0.00  0.00    +0.108 C 
ENDROOT
BRANCH   2   1
ATOM      1  C   LIG    1       49.419  61.065  39.098  0.00  0.00    +0.051 A 
ATOM     20  C   LIG    1       49.935  59.969  39.827  0.00  0.00    +0.031 A 
ATOM     21  C   LIG    1       51.272  59.589  39.734  0.00  0.00    +0.003 A 
ATOM     22  C   LIG    1       51.753  58.503  40.460  0.00  0.00    +0.000 A 
ATOM     23  C   LIG    1       50.907  57.768  41.292  0.00  0.00    +0.002 A 
ATOM     24  C   LIG    1       49.570  58.135  41.399  0.00  0.00    +0.019 A 
ATOM     25  C   LIG    1       49.094  59.223  40.674  0.00  0.00    +0.082 A 
ATOM     26  N   LIG    1       47.793  59.537  40.791  0.00  0.00    -0.241 NA
ATOM     27  C   LIG    1       47.257  60.570  40.109  0.00  0.00    +0.154 A 
ATOM     32  C   LIG    1       48.055  61.360  39.266  0.00  0.00    +0.038 A 
BRANCH  27  28
ATOM     28  C   LIG    1       45.794  60.804  40.373  0.00  0.00    +0.435 C 
ATOM     29  F   LIG    1       45.612  62.079  40.649  0.00  0.00    -0.164 F 
ATOM     30  F   LIG    1       45.278  60.042  41.319  0.00  0.00    -0.164 F 
ATOM     31  F   LIG    1       45.166  60.549  39.245  0.00  0.00    -0.164 F 
ENDBRANCH  27  28
ENDBRANCH   2   1
BRANCH   5   6
ATOM      6  C   LIG    1       52.741  64.398  36.034  0.00  0.00    +0.077 C 
ATOM      7  C   LIG    1       54.021  64.192  36.859  0.00  0.00    +0.044 C 
ATOM      8  C   LIG    1       55.153  64.225  35.832  0.00  0.00    +0.150 C 
ATOM     16  N   LIG    1       54.523  63.790  34.591  0.00  0.00    -0.209 NA
ATOM     17  C   LIG    1       53.073  63.702  34.705  0.00  0.00    +0.105 C 
BRANCH   8   9
ATOM      9  C   LIG    1       56.354  63.389  36.233  0.00  0.00    +0.242 C 
ATOM     10  O   LIG    1       56.540  62.298  35.694  0.00  0.00    -0.273 OA
ATOM     11  N   LIG    1       57.187  63.920  37.138  0.00  0.00    -0.268 N 
ATOM     12  C   LIG    1       56.896  65.225  37.747  0.00  0.00    +0.106 C 
ATOM     13  C   LIG    1       57.987  65.646  38.738  0.00  0.00    +0.081 C 
ATOM     14  S   LIG    1       58.834  64.179  39.090  0.00  0.00    -0.117 S 
ATOM     15  C   LIG    1       58.424  63.287  37.614  0.00  0.00    +0.152 C 
ENDBRANCH   8   9
ENDBRANCH   5   6
TORSDOF 4
ENDMDL
