MODEL 3
REMARK VINA RESULT:    -7.272      5.859      7.652
REMARK INTER + INTRA:          -9.808
REMARK INTER:                  -8.878
REMARK INTRA:                  -0.930
REMARK UNBOUND:                -0.835
REMARK  Name = ligand_1
REMARK                            x       y       z     vdW  Elec       q    Type
REMARK                         _______ _______ _______ _____ _____    ______ ____
ROOT
ATOM      2  N   LIG    1       53.342  63.812  34.930  0.00  0.00    -0.305 N 
ATOM      3  C   LIG    1       53.857  64.127  33.601  0.00  0.00    +0.108 C 
ATOM      4  C   LIG    1       52.697  64.120  32.600  0.00  0.00    +0.094 C 
ATOM      5  N   LIG    1       51.615  64.996  33.077  0.00  0.00    -0.270 NA
ATOM     18  C   LIG    1       51.113  64.691  34.411  0.00  0.00    +0.094 C 
ATOM     19  C   LIG    1       52.272  64.703  35.405  0.00  0.00    +0.108 C 
ENDROOT
BRANCH   2   1
ATOM      1  C   LIG    1       54.312  63.394  35.906  0.00  0.00    +0.051 A 
ATOM     20  C   LIG    1       54.506  62.036  36.251  0.00  0.00    +0.031 A 
ATOM     21  C   LIG    1       53.682  61.028  35.757  0.00  0.00    +0.003 A 
ATOM     22  C   LIG    1       53.891  59.700  36.117  0.00  0.00    +0.000 A 
ATOM     23  C   LIG    1       54.927  59.349  36.984  0.00  0.00    +0.002 A 
ATOM     24  C   LIG    1       55.761  60.342  37.486  0.00  0.00    +0.019 A 
ATOM     25  C   LIG    1       55.550  61.668  37.121  0.00  0.00    +0.082 A 
ATOM     26  N   LIG    1       56.367  62.601  37.638  0.00  0.00    -0.241 NA
ATOM     27  C   LIG    1       56.215  63.909  37.341  0.00  0.00    +0.154 A 
ATOM     32  C   LIG    1       55.202  64.329  36.463  0.00  0.00    +0.038 A 
BRANCH  27  28
ATOM     28  C   LIG    1       57.228  64.818  37.981  0.00  0.00    +0.435 C 
ATOM     29  F   LIG    1       57.148  66.006  37.415  0.00  0.00    -0.164 F 
ATOM     30  F   LIG    1       58.468  64.367  37.951  0.00  0.00    -0.164 F 
ATOM     31  F   LIG    1       56.865  64.954  39.238  0.00  0.00    -0.164 F 
ENDBRANCH  27  28
ENDBRANCH   2   1
BRANCH   5   6
ATOM      6  C   LIG    1       50.473  64.964  32.121  0.00  0.00    +0.077 C 
ATOM      7  C   LIG    1       49.560  63.745  32.325  0.00  0.00    +0.044 C 
ATOM      8  C   LIG    1       48.197  64.190  31.796  0.00  0.00    +0.150 C 
ATOM     16  N   LIG    1       48.205  65.639  31.959  0.00  0.00    -0.209 NA
ATOM     17  C   LIG    1       49.517  66.149  32.333  0.00  0.00    +0.105 C 
BRANCH   8   9
ATOM      9  C   LIG    1       47.031  63.504  32.484  0.00  0.00    +0.242 C 
ATOM     10  O   LIG    1       46.763  63.790  33.651  0.00  0.00    -0.273 OA
ATOM     11  N   LIG    1       46.316  62.641  31.749  0.00  0.00    -0.268 N 
ATOM     12  C   LIG    1       46.701  62.342  30.364  0.00  0.00    +0.106 C 
ATOM     13  C   LIG    1       45.738  61.346  29.708  0.00  0.00    +0.081 C 
ATOM     14  S   LIG    1       44.905  60.618  31.039  0.00  0.00    -0.117 S 
ATOM     15  C   LIG    1       45.127  61.919  32.222  0.00  0.00    +0.152 C 
ENDBRANCH   8   9
ENDBRANCH   5   6
TORSDOF 4
ENDMDL
