MODEL 4
REMARK VINA RESULT:    -7.691      4.581      8.827
REMARK INTER + INTRA:         -10.148
REMARK INTER:                  -9.545
REMARK INTRA:                  -0.603
REMARK UNBOUND:                -0.659
REMARK  Name = ligand_1
REMARK                            x       y       z     vdW  Elec       q    Type
REMARK                         _______ _______ _______ _____ _____    ______ ____
ROOT
ATOM      2  N   LIG    1       50.735  63.046  36.570  0.00  0.00    -0.305 N 
ATOM      3  C   LIG    1       49.402  62.671  36.108  0.00  0.00    +0.108 C 
ATOM      4  C   LIG    1       48.904  61.480  36.934  0.00  0.00    +0.094 C 
ATOM      5  N   LIG    1       49.009  61.782  38.370  0.00  0.00    -0.270 NA
ATOM     18  C   LIG    1       50.337  62.173  38.825  0.00  0.00    +0.094 C 
ATOM     19  C   LIG    1       50.827  63.363  38.003  0.00  0.00    +0.108 C 
ENDROOT
BRANCH   2   1
ATOM      1  C   LIG    1       51.508  63.867  35.677  0.00  0.00    +0.051 A 
ATOM     20  C   LIG    1       52.920  63.810  35.623  0.00  0.00    +0.031 A 
ATOM     21  C   LIG    1       53.658  63.041  36.519  0.00  0.00    +0.003 A 
ATOM     22  C   LIG    1       55.048  63.006  36.447  0.00  0.00    +0.000 A 
ATOM     23  C   LIG    1       55.733  63.743  35.479  0.00  0.00    +0.002 A 
ATOM     24  C   LIG    1       55.011  64.515  34.575  0.00  0.00    +0.019 A 
ATOM     25  C   LIG    1       53.622  64.545  34.649  0.00  0.00    +0.082 A 
ATOM     26  N   LIG    1       52.961  65.314  33.767  0.00  0.00    -0.241 NA
ATOM     27  C   LIG    1       51.615  65.404  33.787  0.00  0.00    +0.154 A 
ATOM     32  C   LIG    1       50.864  64.676  34.725  0.00  0.00    +0.038 A 
BRANCH  27  28
ATOM     28  C   LIG    1       51.031  66.285  32.717  0.00  0.00    +0.435 C 
ATOM     29  F   LIG    1       51.660  66.048  31.584  0.00  0.00    -0.164 F 
ATOM     30  F   LIG    1       51.043  67.574  32.999  0.00  0.00    -0.164 F 
ATOM     31  F   LIG    1       49.780  65.906  32.563  0.00  0.00    -0.164 F 
ENDBRANCH  27  28
ENDBRANCH   2   1
BRANCH   5   6
ATOM      6  C   LIG    1       48.557  60.612  39.173  0.00  0.00    +0.077 C 
ATOM      7  C   LIG    1       49.564  59.452  39.154  0.00  0.00    +0.044 C 
ATOM      8  C   LIG    1       49.308  58.695  40.456  0.00  0.00    +0.150 C 
ATOM     16  N   LIG    1       48.759  59.704  41.355  0.00  0.00    -0.209 NA
ATOM     17  C   LIG    1       48.452  60.952  40.669  0.00  0.00    +0.105 C 
BRANCH   8   9
ATOM      9  C   LIG    1       50.541  57.998  41.001  0.00  0.00    +0.242 C 
ATOM     10  O   LIG    1       51.639  58.542  40.897  0.00  0.00    -0.273 OA
ATOM     11  N   LIG    1       50.349  56.824  41.619  0.00  0.00    -0.268 N 
ATOM     12  C   LIG    1       49.008  56.230  41.696  0.00  0.00    +0.106 C 
ATOM     13  C   LIG    1       49.018  54.901  42.459  0.00  0.00    +0.081 C 
ATOM     14  S   LIG    1       50.681  54.423  42.463  0.00  0.00    -0.117 S 
ATOM     15  C   LIG    1       51.408  56.026  42.251  0.00  0.00    +0.152 C 
ENDBRANCH   8   9
ENDBRANCH   5   6
TORSDOF 4
ENDMDL
