MODEL 9
REMARK VINA RESULT:    -5.966      5.619      8.380
REMARK INTER + INTRA:          -8.081
REMARK INTER:                  -8.154
REMARK INTRA:                   0.073
REMARK UNBOUND:                -0.720
REMARK  Name = ligand_1
REMARK                            x       y       z     vdW  Elec       q    Type
REMARK                         _______ _______ _______ _____ _____    ______ ____
ROOT
ATOM      2  N   LIG    1       52.781  60.696  35.383  0.00  0.00    -0.305 N 
ATOM      3  C   LIG    1       52.096  60.093  36.522  0.00  0.00    +0.108 C 
ATOM      4  C   LIG    1       53.095  59.238  37.309  0.00  0.00    +0.094 C 
ATOM      5  N   LIG    1       54.287  60.033  37.643  0.00  0.00    -0.270 NA
ATOM     18  C   LIG    1       54.959  60.649  36.506  0.00  0.00    +0.094 C 
ATOM     19  C   LIG    1       53.962  61.503  35.727  0.00  0.00    +0.108 C 
ENDROOT
BRANCH   2   1
ATOM      1  C   LIG    1       51.940  61.201  34.330  0.00  0.00    +0.051 A 
ATOM     20  C   LIG    1       51.618  62.573  34.207  0.00  0.00    +0.031 A 
ATOM     21  C   LIG    1       51.996  63.505  35.170  0.00  0.00    +0.003 A 
ATOM     22  C   LIG    1       51.662  64.848  35.027  0.00  0.00    +0.000 A 
ATOM     23  C   LIG    1       50.937  65.291  33.919  0.00  0.00    +0.002 A 
ATOM     24  C   LIG    1       50.553  64.374  32.946  0.00  0.00    +0.019 A 
ATOM     25  C   LIG    1       50.892  63.033  33.092  0.00  0.00    +0.082 A 
ATOM     26  N   LIG    1       50.491  62.174  32.139  0.00  0.00    -0.241 NA
ATOM     27  C   LIG    1       50.770  60.857  32.220  0.00  0.00    +0.154 A 
ATOM     32  C   LIG    1       51.508  60.348  33.300  0.00  0.00    +0.038 A 
BRANCH  27  28
ATOM     28  C   LIG    1       50.272  60.040  31.059  0.00  0.00    +0.435 C 
ATOM     29  F   LIG    1       49.032  59.667  31.304  0.00  0.00    -0.164 F 
ATOM     30  F   LIG    1       51.024  58.998  30.757  0.00  0.00    -0.164 F 
ATOM     31  F   LIG    1       50.244  60.847  30.020  0.00  0.00    -0.164 F 
ENDBRANCH  27  28
ENDBRANCH   2   1
BRANCH   5   6
ATOM      6  C   LIG    1       55.272  59.193  38.380  0.00  0.00    +0.077 C 
ATOM      7  C   LIG    1       54.602  58.167  39.306  0.00  0.00    +0.044 C 
ATOM      8  C   LIG    1       55.622  57.035  39.433  0.00  0.00    +0.150 C 
ATOM     16  N   LIG    1       56.397  57.112  38.199  0.00  0.00    -0.209 NA
ATOM     17  C   LIG    1       56.095  58.311  37.428  0.00  0.00    +0.105 C 
BRANCH   8   9
ATOM      9  C   LIG    1       54.990  55.677  39.672  0.00  0.00    +0.242 C 
ATOM     10  O   LIG    1       54.834  54.906  38.727  0.00  0.00    -0.273 OA
ATOM     11  N   LIG    1       54.672  55.372  40.938  0.00  0.00    -0.268 N 
ATOM     12  C   LIG    1       54.879  56.347  42.017  0.00  0.00    +0.106 C 
ATOM     13  C   LIG    1       54.465  55.784  43.381  0.00  0.00    +0.081 C 
ATOM     14  S   LIG    1       53.464  54.426  42.996  0.00  0.00    -0.117 S 
ATOM     15  C   LIG    1       54.098  54.092  41.375  0.00  0.00    +0.152 C 
ENDBRANCH   8   9
ENDBRANCH   5   6
TORSDOF 4
ENDMDL
