REMARK  Name = 3129
REMARK                            x       y       z     vdW  Elec       q    Type
REMARK                         _______ _______ _______ _____ _____    ______ ____
ROOT
ATOM      1  C   LIG    1        6.330  -2.500   0.000  0.00  0.00    +0.120 C 
ENDROOT
BRANCH   1   2
ATOM      2  N   LIG    1        6.330  -1.500   0.000  0.00  0.00    -0.308 N 
ATOM      3  H   LIG    1        6.867  -1.190   0.000  0.00  0.00    +0.149 HD
ATOM      4  C   LIG    1        5.464  -1.000   0.000  0.00  0.00    +0.213 C 
ATOM      5  O   LIG    1        4.598  -1.500   0.000  0.00  0.00    -0.276 OA
BRANCH   4   6
ATOM      6  C   LIG    1        5.464   0.000   0.000  0.00  0.00    +0.096 C 
BRANCH   6   7
ATOM      7  C   LIG    1        4.598   0.500   0.000  0.00  0.00    +0.009 C 
BRANCH   7   8
ATOM      8  C   LIG    1        4.598   1.500   0.000  0.00  0.00    +0.000 C 
BRANCH   8   9
ATOM      9  C   LIG    1        3.732   2.000   0.000  0.00  0.00    +0.000 C 
BRANCH   9  10
ATOM     10  C   LIG    1        3.732   3.000   0.000  0.00  0.00    +0.000 C 
BRANCH  10  11
ATOM     11  C   LIG    1        2.866   3.500   0.000  0.00  0.00    -0.000 C 
BRANCH  11  12
ATOM     12  C   LIG    1        2.866   4.500   0.000  0.00  0.00    -0.000 C 
BRANCH  12  13
ATOM     13  C   LIG    1        2.000   5.000   0.000  0.00  0.00    -0.003 C 
ATOM     14  C   LIG    1        2.000   6.000   0.000  0.00  0.00    +0.004 C 
ENDBRANCH  12  13
ENDBRANCH  11  12
ENDBRANCH  10  11
ENDBRANCH   9  10
ENDBRANCH   8   9
ENDBRANCH   7   8
ENDBRANCH   6   7
ENDBRANCH   4   6
ENDBRANCH   1   2
BRANCH   1  15
ATOM     15  C   LIG    1        7.196  -3.000   0.000  0.00  0.00    +0.109 C 
BRANCH  15  19
ATOM     16  O   LIG    1        9.794  -1.500   0.000  0.00  0.00    -0.377 OA
ATOM     17  C   LIG    1        9.794  -2.500   0.000  0.00  0.00    +0.175 C 
ATOM     18  C   LIG    1        8.928  -3.000   0.000  0.00  0.00    +0.112 C 
ATOM     19  N   LIG    1        8.062  -2.500   0.000  0.00  0.00    -0.296 NA
ATOM     20  C   LIG    1        8.062  -1.500   0.000  0.00  0.00    +0.112 C 
ATOM     21  C   LIG    1        8.928  -1.000   0.000  0.00  0.00    +0.175 C 
ENDBRANCH  15  19
ENDBRANCH   1  15
BRANCH   1  22
ATOM     22  C   LIG    1        5.464  -3.000   0.000  0.00  0.00    +0.166 C 
BRANCH  22  23
ATOM     23  C   LIG    1        5.464  -4.000   0.000  0.00  0.00    -0.017 A 
ATOM     24  C   LIG    1        4.598  -4.500   0.000  0.00  0.00    +0.006 A 
ATOM     25  C   LIG    1        4.598  -5.500   0.000  0.00  0.00    +0.000 A 
ATOM     26  C   LIG    1        5.464  -6.000   0.000  0.00  0.00    +0.000 A 
ATOM     27  C   LIG    1        6.330  -5.500   0.000  0.00  0.00    +0.000 A 
ATOM     28  C   LIG    1        6.330  -4.500   0.000  0.00  0.00    +0.006 A 
ENDBRANCH  22  23
BRANCH  22  29
ATOM     29  O   LIG    1        4.598  -2.500   0.000  0.00  0.00    -0.385 OA
ATOM     30  H   LIG    1        4.061  -2.810   0.000  0.00  0.00    +0.210 HD
ENDBRANCH  22  29
ENDBRANCH   1  22
TORSDOF 14
