REMARK  Name = 3133
REMARK                            x       y       z     vdW  Elec       q    Type
REMARK                         _______ _______ _______ _____ _____    ______ ____
ROOT
ATOM      1  C   LIG    1        6.330   0.250   0.000  0.00  0.00    +0.092 C 
ATOM      2  C   LIG    1        6.330   1.250   0.000  0.00  0.00    +0.015 C 
ENDROOT
BRANCH   2   3
ATOM      3  C   LIG    1        5.464   1.750   0.000  0.00  0.00    -0.021 A 
ATOM      4  C   LIG    1        4.598   1.250   0.000  0.00  0.00    +0.012 A 
ATOM      5  C   LIG    1        3.732   1.750   0.000  0.00  0.00    +0.050 A 
ATOM      6  C   LIG    1        3.732   2.750   0.000  0.00  0.00    +0.162 A 
ATOM      7  C   LIG    1        4.598   3.250   0.000  0.00  0.00    +0.162 A 
ATOM      8  C   LIG    1        5.464   2.750   0.000  0.00  0.00    +0.057 A 
BRANCH   7   9
ATOM      9  O   LIG    1        4.598   4.250   0.000  0.00  0.00    -0.491 OA
ATOM     10  C   LIG    1        5.464   4.750   0.000  0.00  0.00    +0.277 C 
ENDBRANCH   7   9
BRANCH   6  11
ATOM     11  O   LIG    1        2.866   3.250   0.000  0.00  0.00    -0.491 OA
ATOM     12  C   LIG    1        2.000   2.750   0.000  0.00  0.00    +0.277 C 
ENDBRANCH   6  11
ENDBRANCH   2   3
BRANCH   1  13
ATOM     13  C   LIG    1        7.196  -0.250   0.000  0.00  0.00    +0.332 C 
ATOM     14  O   LIG    1        8.062   0.250   0.000  0.00  0.00    -0.246 OA
BRANCH  13  15
ATOM     15  O   LIG    1        7.196  -1.250   0.000  0.00  0.00    -0.461 OA
BRANCH  15  16
ATOM     16  C   LIG    1        8.062  -1.750   0.000  0.00  0.00    +0.237 C 
BRANCH  16  17
ATOM     17  C   LIG    1        8.062  -2.750   0.000  0.00  0.00    +0.076 C 
BRANCH  17  18
ATOM     18  C   LIG    1        8.928  -3.250   0.000  0.00  0.00    -0.044 A 
ATOM     19  C   LIG    1        9.794  -2.750   0.000  0.00  0.00    +0.004 A 
ATOM     20  C   LIG    1       10.660  -3.250   0.000  0.00  0.00    +0.000 A 
ATOM     21  C   LIG    1       10.660  -4.250   0.000  0.00  0.00    +0.000 A 
ATOM     22  C   LIG    1        9.794  -4.750   0.000  0.00  0.00    +0.000 A 
ATOM     23  C   LIG    1        8.928  -4.250   0.000  0.00  0.00    +0.004 A 
ENDBRANCH  17  18
ENDBRANCH  16  17
ENDBRANCH  15  16
ENDBRANCH  13  15
ENDBRANCH   1  13
TORSDOF 8
