REMARK  Name = 3169
REMARK                            x       y       z     vdW  Elec       q    Type
REMARK                         _______ _______ _______ _____ _____    ______ ____
ROOT
ATOM      1  N   LIG    1        2.866   0.690   0.000  0.00  0.00    -0.297 NA
ATOM      2  C   LIG    1        2.000   0.190   0.000  0.00  0.00    +0.103 C 
ATOM      3  C   LIG    1        2.000  -0.810   0.000  0.00  0.00    +0.120 C 
ATOM      4  N   LIG    1        2.866  -1.310   0.000  0.00  0.00    -0.327 N 
ATOM      5  C   LIG    1        3.732  -0.810   0.000  0.00  0.00    +0.120 C 
ATOM      6  C   LIG    1        3.732   0.190   0.000  0.00  0.00    +0.103 C 
ENDROOT
BRANCH   4   7
ATOM      7  C   LIG    1        2.866  -2.310   0.000  0.00  0.00    +0.030 A 
ATOM      8  C   LIG    1        3.732  -2.810   0.000  0.00  0.00    +0.023 A 
ATOM      9  C   LIG    1        3.732  -3.810   0.000  0.00  0.00    +0.002 A 
ATOM     10  C   LIG    1        2.866  -4.310   0.000  0.00  0.00    +0.000 A 
ATOM     11  C   LIG    1        2.000  -3.810   0.000  0.00  0.00    +0.002 A 
ATOM     12  C   LIG    1        2.000  -2.810   0.000  0.00  0.00    +0.023 A 
ENDBRANCH   4   7
BRANCH   1  13
ATOM     13  C   LIG    1        2.866   1.690   0.000  0.00  0.00    +0.118 C 
BRANCH  13  14
ATOM     14  C   LIG    1        3.732   2.190   0.000  0.00  0.00    +0.154 C 
BRANCH  14  15
ATOM     15  O   LIG    1        4.598   1.690   0.000  0.00  0.00    -0.388 OA
ATOM     16  H   LIG    1        5.135   2.000   0.000  0.00  0.00    +0.210 HD
ENDBRANCH  14  15
BRANCH  14  17
ATOM     17  C   LIG    1        3.732   3.190   0.000  0.00  0.00    +0.188 C 
BRANCH  17  18
ATOM     18  O   LIG    1        4.598   3.690   0.000  0.00  0.00    -0.392 OA
ATOM     19  H   LIG    1        4.598   4.310   0.000  0.00  0.00    +0.210 HD
ENDBRANCH  17  18
ENDBRANCH  14  17
ENDBRANCH  13  14
ENDBRANCH   1  13
TORSDOF 6
