REMARK  Name = 3173
REMARK                            x       y       z     vdW  Elec       q    Type
REMARK                         _______ _______ _______ _____ _____    ______ ____
ROOT
ATOM      1  N   LIG    1        5.464  -0.250   0.000  0.00  0.00    -0.347 N 
ATOM      2  C   LIG    1        5.464  -1.250   0.000  0.00  0.00    +0.128 C 
ENDROOT
BRANCH   1   4
ATOM      3  S   LIG    1        7.196  -0.250   0.000  0.00  0.00    -0.736 S 
ATOM      4  C   LIG    1        6.330   0.250   0.000  0.00  0.00    -0.091 C 
ATOM      5  S   LIG    1        6.330   1.250   0.000  0.00  0.00    -0.070 S 
ENDBRANCH   1   4
BRANCH   1   6
ATOM      6  C   LIG    1        4.598   0.250   0.000  0.00  0.00    +0.154 C 
BRANCH   6   7
ATOM      7  C   LIG    1        3.732  -0.250   0.000  0.00  0.00    +0.059 C 
ATOM      8  O   LIG    1        3.732  -1.250   0.000  0.00  0.00    -0.548 OA
ATOM      9  O   LIG    1        2.866   0.250   0.000  0.00  0.00    -0.548 OA
ENDBRANCH   6   7
ENDBRANCH   1   6
TORSDOF 3
REMARK  Name = 3173
REMARK                            x       y       z     vdW  Elec       q    Type
REMARK                         _______ _______ _______ _____ _____    ______ ____
ROOT
ATOM      1 NA   LIG    1        8.062   0.250   0.000  0.00  0.00    +0.000 Na
ENDROOT
TORSDOF 0
REMARK  Name = 3173
REMARK                            x       y       z     vdW  Elec       q    Type
REMARK                         _______ _______ _______ _____ _____    ______ ____
ROOT
ATOM      1 NA   LIG    1        2.000  -0.250   0.000  0.00  0.00    +0.000 Na
ENDROOT
TORSDOF 0
