REMARK  Name = 3178
REMARK                            x       y       z     vdW  Elec       q    Type
REMARK                         _______ _______ _______ _____ _____    ______ ____
ROOT
ATOM      1  C   LIG    1        9.533  -0.052   0.000  0.00  0.00    +0.132 C 
ENDROOT
BRANCH   1   5
ATOM      2  C   LIG    1       12.125  -1.562   0.000  0.00  0.00    +0.129 A 
ATOM      3  C   LIG    1       11.257  -2.058   0.000  0.00  0.00    +0.046 A 
ATOM      4  C   LIG    1       10.393  -1.555   0.000  0.00  0.00    +0.008 A 
ATOM      5  C   LIG    1       10.397  -0.555   0.000  0.00  0.00    -0.033 A 
ATOM      6  C   LIG    1       11.265  -0.058   0.000  0.00  0.00    +0.008 A 
ATOM      7  C   LIG    1       12.129  -0.562   0.000  0.00  0.00    +0.046 A 
BRANCH   2   8
ATOM      8  O   LIG    1       12.990  -2.065   0.000  0.00  0.00    -0.455 OA
BRANCH   8   9
ATOM      9  C   LIG    1       13.857  -1.568   0.000  0.00  0.00    +0.146 A 
ATOM     10  C   LIG    1       14.769  -1.979   0.000  0.00  0.00    +0.065 A 
ATOM     11  C   LIG    1       15.441  -1.238   0.000  0.00  0.00    +0.091 A 
ATOM     12  N   LIG    1       14.945  -0.370   0.000  0.00  0.00    -0.334 N 
ATOM     13  C   LIG    1       13.966  -0.574   0.000  0.00  0.00    +0.133 A 
BRANCH  12  14
ATOM     14  C   LIG    1       15.355   0.542   0.000  0.00  0.00    +0.149 C 
ATOM     15  C   LIG    1       14.770   1.353   0.000  0.00  0.00    +0.048 C 
BRANCH  14  16
ATOM     16  N   LIG    1       16.350   0.643   0.000  0.00  0.00    -0.311 NA
ATOM     17  H   LIG    1       16.712   0.140   0.000  0.00  0.00    +0.120 HD
ATOM     18  H   LIG    1       16.604   1.208   0.000  0.00  0.00    +0.120 HD
ENDBRANCH  14  16
ENDBRANCH  12  14
ENDBRANCH   8   9
ENDBRANCH   2   8
ENDBRANCH   1   5
BRANCH   1  19
ATOM     19  C   LIG    1        9.537   0.948   0.000  0.00  0.00    +0.313 C 
ATOM     20  O   LIG    1        8.673   1.452   0.000  0.00  0.00    -0.250 OA
BRANCH  19  21
ATOM     21  O   LIG    1       10.405   1.445   0.000  0.00  0.00    -0.480 OA
ATOM     22  H   LIG    1       10.407   2.065   0.000  0.00  0.00    +0.295 HD
ENDBRANCH  19  21
ENDBRANCH   1  19
BRANCH   1  23
ATOM     23  C   LIG    1        8.665  -0.548   0.000  0.00  0.00    +0.054 C 
BRANCH  23  24
ATOM     24  C   LIG    1        7.801  -0.045   0.000  0.00  0.00    -0.046 A 
ATOM     25  C   LIG    1        7.801   0.997   0.000  0.00  0.00    +0.004 A 
ATOM     26  C   LIG    1        6.895   1.511   0.000  0.00  0.00    +0.009 A 
ATOM     27  C   LIG    1        6.001   0.976   0.000  0.00  0.00    -0.018 A 
ATOM     28  C   LIG    1        5.135   1.476   0.000  0.00  0.00    +0.009 A 
ATOM     29  C   LIG    1        4.269   0.976   0.000  0.00  0.00    +0.016 A 
ATOM     30  C   LIG    1        4.269  -0.024   0.000  0.00  0.00    +0.061 A 
ATOM     31  C   LIG    1        5.135  -0.524   0.000  0.00  0.00    +0.024 A 
ATOM     32  C   LIG    1        6.001  -0.024   0.000  0.00  0.00    -0.017 A 
ATOM     33  C   LIG    1        6.895  -0.559   0.000  0.00  0.00    +0.012 A 
BRANCH  30  34
ATOM     34  C   LIG    1        3.403  -0.524   0.000  0.00  0.00    +0.266 C 
ATOM     35  N   LIG    1        3.403  -1.524   0.000  0.00  0.00    -0.288 N 
ATOM     36  H   LIG    1        3.940  -1.834   0.000  0.00  0.00    +0.301 HD
ATOM     37  H   LIG    1        2.866  -1.834   0.000  0.00  0.00    +0.301 HD
BRANCH  34  38
ATOM     38  N   LIG    1        2.537  -0.024   0.000  0.00  0.00    -0.250 N 
ATOM     39  H   LIG    1        2.537   0.596   0.000  0.00  0.00    +0.288 HD
ATOM     40  H   LIG    1        2.000  -0.334   0.000  0.00  0.00    +0.288 HD
ENDBRANCH  34  38
ENDBRANCH  30  34
ENDBRANCH  23  24
ENDBRANCH   1  23
TORSDOF 11
