REMARK  Name = 3184
REMARK                            x       y       z     vdW  Elec       q    Type
REMARK                         _______ _______ _______ _____ _____    ______ ____
ROOT
ATOM      1  C   LIG    1        4.000   1.098   0.000  0.00  0.00    +0.070 C 
ATOM      2  C   LIG    1        3.134   0.598   0.000  0.00  0.00    +0.062 C 
ATOM      3  C   LIG    1        3.134  -0.402   0.000  0.00  0.00    +0.132 C 
ATOM      4  N   LIG    1        4.000  -0.902   0.000  0.00  0.00    +0.236 N 
ATOM      5  H   LIG    1        4.310  -1.439   0.000  0.00  0.00    +0.203 HD
ATOM      6  C   LIG    1        4.866  -0.402   0.000  0.00  0.00    +0.132 C 
ATOM      7  C   LIG    1        4.866   0.598   0.000  0.00  0.00    +0.062 C 
ENDROOT
BRANCH   1   8
ATOM      8  C   LIG    1        4.000   2.098   0.000  0.00  0.00    +0.167 C 
ATOM      9  O   LIG    1        3.134   2.598   0.000  0.00  0.00    -0.292 OA
BRANCH   8  13
ATOM     10  C   LIG    1        6.598   3.598   0.000  0.00  0.00    +0.048 A 
ATOM     11  C   LIG    1        5.732   4.098   0.000  0.00  0.00    +0.025 A 
ATOM     12  C   LIG    1        4.866   3.598   0.000  0.00  0.00    +0.013 A 
ATOM     13  C   LIG    1        4.866   2.598   0.000  0.00  0.00    +0.018 A 
ATOM     14  C   LIG    1        5.732   2.098   0.000  0.00  0.00    +0.013 A 
ATOM     15  C   LIG    1        6.598   2.598   0.000  0.00  0.00    +0.025 A 
BRANCH  10  16
ATOM     16  N   LIG    1        7.464   4.098   0.000  0.00  0.00    -0.221 N 
ATOM     17  H   LIG    1        8.001   3.788   0.000  0.00  0.00    +0.173 HD
BRANCH  16  18
ATOM     18  S   LIG    1        7.464   5.098   0.000  0.00  0.00    +0.040 S 
ATOM     19  C   LIG    1        7.464   6.098   0.000  0.00  0.00    +0.218 C 
ATOM     20  O   LIG    1        6.464   5.098   0.000  0.00  0.00    -0.155 OA
ATOM     21  O   LIG    1        8.464   5.098   0.000  0.00  0.00    -0.155 OA
ENDBRANCH  16  18
ENDBRANCH  10  16
ENDBRANCH   8  13
ENDBRANCH   1   8
BRANCH   4  22
ATOM     22  C   LIG    1        3.500  -1.768   0.000  0.00  0.00    +0.142 C 
BRANCH  22  23
ATOM     23  C   LIG    1        4.000  -2.634   0.000  0.00  0.00    +0.157 C 
BRANCH  23  24
ATOM     24  C   LIG    1        3.500  -3.500   0.000  0.00  0.00    +0.188 A 
ATOM     25  C   LIG    1        2.500  -3.500   0.000  0.00  0.00    +0.073 A 
ATOM     26  C   LIG    1        2.000  -4.366   0.000  0.00  0.00    +0.012 A 
ATOM     27  C   LIG    1        2.500  -5.232   0.000  0.00  0.00    +0.073 A 
ATOM     28  C   LIG    1        3.500  -5.232   0.000  0.00  0.00    +0.179 A 
ATOM     29  C   LIG    1        4.000  -6.098   0.000  0.00  0.00    +0.122 C 
ATOM     30  N   LIG    1        4.000  -4.366   0.000  0.00  0.00    -0.212 N 
ATOM     31  H   LIG    1        4.620  -4.366   0.000  0.00  0.00    +0.453 HD
ENDBRANCH  23  24
ENDBRANCH  22  23
ENDBRANCH   4  22
TORSDOF 7
