REMARK  Name = 3207
REMARK                            x       y       z     vdW  Elec       q    Type
REMARK                         _______ _______ _______ _____ _____    ______ ____
ROOT
ATOM      1  C   LIG    1        9.465   0.750   0.000  0.00  0.00    -0.027 C 
ATOM      2  C   LIG    1       10.331   0.250   0.000  0.00  0.00    -0.031 C 
ENDROOT
BRANCH   1   3
ATOM      3  C   LIG    1        8.599   0.250   0.000  0.00  0.00    +0.053 C 
BRANCH   3   5
ATOM      4  C   LIG    1        6.867   0.250   0.000  0.00  0.00    -0.031 C 
ATOM      5  C   LIG    1        7.733   0.750   0.000  0.00  0.00    -0.027 C 
BRANCH   4   6
ATOM      6  C   LIG    1        6.001   0.750   0.000  0.00  0.00    +0.027 C 
BRANCH   6   7
ATOM      7  C   LIG    1        5.135   0.250   0.000  0.00  0.00    +0.015 C 
BRANCH   7   8
ATOM      8  C   LIG    1        4.269   0.750   0.000  0.00  0.00    +0.121 C 
BRANCH   8   9
ATOM      9  C   LIG    1        3.403   0.250   0.000  0.00  0.00    +0.305 C 
ATOM     10  O   LIG    1        3.403  -0.750   0.000  0.00  0.00    -0.251 OA
BRANCH   9  11
ATOM     11  O   LIG    1        2.537   0.750   0.000  0.00  0.00    -0.481 OA
ATOM     12  H   LIG    1        2.000   0.440   0.000  0.00  0.00    +0.295 HD
ENDBRANCH   9  11
ENDBRANCH   8   9
ENDBRANCH   7   8
ENDBRANCH   6   7
ENDBRANCH   4   6
ENDBRANCH   3   5
ENDBRANCH   1   3
BRANCH   2  13
ATOM     13  C   LIG    1       11.197   0.750   0.000  0.00  0.00    +0.027 C 
BRANCH  13  14
ATOM     14  C   LIG    1       12.063   0.250   0.000  0.00  0.00    +0.004 C 
BRANCH  14  15
ATOM     15  C   LIG    1       12.929   0.750   0.000  0.00  0.00    +0.000 C 
BRANCH  15  16
ATOM     16  C   LIG    1       13.795   0.250   0.000  0.00  0.00    +0.000 C 
BRANCH  16  17
ATOM     17  C   LIG    1       14.661   0.750   0.000  0.00  0.00    +0.000 C 
BRANCH  17  18
ATOM     18  C   LIG    1       15.527   0.250   0.000  0.00  0.00    +0.000 C 
BRANCH  18  19
ATOM     19  C   LIG    1       16.393   0.750   0.000  0.00  0.00    -0.000 C 
BRANCH  19  20
ATOM     20  C   LIG    1       17.259   0.250   0.000  0.00  0.00    -0.000 C 
BRANCH  20  21
ATOM     21  C   LIG    1       18.125   0.750   0.000  0.00  0.00    -0.000 C 
BRANCH  21  22
ATOM     22  C   LIG    1       18.991   0.250   0.000  0.00  0.00    -0.003 C 
ATOM     23  C   LIG    1       19.857   0.750   0.000  0.00  0.00    +0.004 C 
ENDBRANCH  21  22
ENDBRANCH  20  21
ENDBRANCH  19  20
ENDBRANCH  18  19
ENDBRANCH  17  18
ENDBRANCH  16  17
ENDBRANCH  15  16
ENDBRANCH  14  15
ENDBRANCH  13  14
ENDBRANCH   2  13
TORSDOF 17
