REMARK  Name = 3210
REMARK                            x       y       z     vdW  Elec       q    Type
REMARK                         _______ _______ _______ _____ _____    ______ ____
ROOT
ATOM      1  C   LIG    1       10.331   0.250   0.000  0.00  0.00    +0.004 C 
ENDROOT
BRANCH   1   2
ATOM      2  C   LIG    1        9.465   0.750   0.000  0.00  0.00    +0.000 C 
BRANCH   2   3
ATOM      3  C   LIG    1        8.599   0.250   0.000  0.00  0.00    +0.000 C 
BRANCH   3   4
ATOM      4  C   LIG    1        7.733   0.750   0.000  0.00  0.00    +0.000 C 
BRANCH   4   5
ATOM      5  C   LIG    1        6.867   0.250   0.000  0.00  0.00    +0.000 C 
BRANCH   5   6
ATOM      6  C   LIG    1        6.001   0.750   0.000  0.00  0.00    +0.001 C 
BRANCH   6   7
ATOM      7  C   LIG    1        5.135   0.250   0.000  0.00  0.00    +0.011 C 
BRANCH   7   8
ATOM      8  C   LIG    1        4.269   0.750   0.000  0.00  0.00    +0.120 C 
BRANCH   8   9
ATOM      9  C   LIG    1        3.403   0.250   0.000  0.00  0.00    +0.305 C 
ATOM     10  O   LIG    1        3.403  -0.750   0.000  0.00  0.00    -0.251 OA
BRANCH   9  11
ATOM     11  O   LIG    1        2.537   0.750   0.000  0.00  0.00    -0.481 OA
ATOM     12  H   LIG    1        2.000   0.440   0.000  0.00  0.00    +0.295 HD
ENDBRANCH   9  11
ENDBRANCH   8   9
ENDBRANCH   7   8
ENDBRANCH   6   7
ENDBRANCH   5   6
ENDBRANCH   4   5
ENDBRANCH   3   4
ENDBRANCH   2   3
ENDBRANCH   1   2
BRANCH   1  13
ATOM     13  C   LIG    1       11.197   0.750   0.000  0.00  0.00    +0.027 C 
BRANCH  13  14
ATOM     14  C   LIG    1       12.063   0.250   0.000  0.00  0.00    -0.031 C 
ATOM     15  C   LIG    1       12.929   0.750   0.000  0.00  0.00    -0.027 C 
BRANCH  15  16
ATOM     16  C   LIG    1       13.795   0.250   0.000  0.00  0.00    +0.053 C 
BRANCH  16  17
ATOM     17  C   LIG    1       14.661   0.750   0.000  0.00  0.00    -0.027 C 
ATOM     18  C   LIG    1       15.527   0.250   0.000  0.00  0.00    -0.027 C 
BRANCH  18  19
ATOM     19  C   LIG    1       16.393   0.750   0.000  0.00  0.00    +0.053 C 
BRANCH  19  20
ATOM     20  C   LIG    1       17.259   0.250   0.000  0.00  0.00    -0.027 C 
ATOM     21  C   LIG    1       18.125   0.750   0.000  0.00  0.00    -0.031 C 
BRANCH  21  22
ATOM     22  C   LIG    1       18.991   0.250   0.000  0.00  0.00    +0.023 C 
ATOM     23  C   LIG    1       19.857   0.750   0.000  0.00  0.00    +0.008 C 
ENDBRANCH  21  22
ENDBRANCH  19  20
ENDBRANCH  18  19
ENDBRANCH  16  17
ENDBRANCH  15  16
ENDBRANCH  13  14
ENDBRANCH   1  13
TORSDOF 16
