REMARK  Name = 3225
REMARK                            x       y       z     vdW  Elec       q    Type
REMARK                         _______ _______ _______ _____ _____    ______ ____
ROOT
ATOM      1  O   LIG    1        4.962   2.374   0.000  0.00  0.00    -0.372 OA
ATOM      2  C   LIG    1        5.440   0.425   0.000  0.00  0.00    +0.133 C 
ATOM      3  C   LIG    1        6.839  -0.083   0.000  0.00  0.00    +0.035 C 
ATOM      4  C   LIG    1        7.098   0.882   0.000  0.00  0.00    +0.035 C 
ATOM      5  C   LIG    1        4.067  -0.167   0.000  0.00  0.00    +0.142 C 
ATOM      6  C   LIG    1        3.725   0.773   0.000  0.00  0.00    +0.142 C 
ATOM      7  C   LIG    1        5.699   1.391   0.000  0.00  0.00    +0.133 C 
ENDROOT
BRANCH   5   8
ATOM      8  C   LIG    1        3.645  -1.073   0.000  0.00  0.00    +0.311 C 
ATOM      9  O   LIG    1        2.649  -1.160   0.000  0.00  0.00    -0.251 OA
BRANCH   8  10
ATOM     10  O   LIG    1        4.218  -1.892   0.000  0.00  0.00    -0.480 OA
ATOM     11  H   LIG    1        3.956  -2.454   0.000  0.00  0.00    +0.295 HD
ENDBRANCH   8  10
ENDBRANCH   5   8
BRANCH   6  12
ATOM     12  C   LIG    1        2.819   1.196   0.000  0.00  0.00    +0.311 C 
ATOM     13  O   LIG    1        2.000   0.622   0.000  0.00  0.00    -0.251 OA
BRANCH  12  14
ATOM     14  O   LIG    1        2.732   2.192   0.000  0.00  0.00    -0.480 OA
ATOM     15  H   LIG    1        2.170   2.454   0.000  0.00  0.00    +0.295 HD
ENDBRANCH  12  14
ENDBRANCH   6  12
TORSDOF 4
