MODEL 1
REMARK VINA RESULT:    -8.516      0.000      0.000
REMARK INTER + INTRA:         -11.168
REMARK INTER:                 -10.507
REMARK INTRA:                  -0.660
REMARK UNBOUND:                -0.660
REMARK  Name = ligand_1
REMARK                            x       y       z     vdW  Elec       q    Type
REMARK                         _______ _______ _______ _____ _____    ______ ____
ROOT
ATOM      2  N   LIG    1       50.219  61.897  38.290  0.00  0.00    -0.305 N 
ATOM      3  C   LIG    1       50.421  63.248  38.807  0.00  0.00    +0.108 C 
ATOM      4  C   LIG    1       51.645  63.866  38.124  0.00  0.00    +0.094 C 
ATOM      5  N   LIG    1       51.512  63.767  36.663  0.00  0.00    -0.270 NA
ATOM     18  C   LIG    1       51.295  62.421  36.150  0.00  0.00    +0.094 C 
ATOM     19  C   LIG    1       50.071  61.810  36.829  0.00  0.00    +0.108 C 
ENDROOT
BRANCH   2   1
ATOM      1  C   LIG    1       49.378  61.035  39.076  0.00  0.00    +0.051 A 
ATOM     20  C   LIG    1       49.889  59.942  39.815  0.00  0.00    +0.031 A 
ATOM     21  C   LIG    1       51.225  59.559  39.728  0.00  0.00    +0.003 A 
ATOM     22  C   LIG    1       51.701  58.476  40.462  0.00  0.00    +0.000 A 
ATOM     23  C   LIG    1       50.851  57.748  41.297  0.00  0.00    +0.002 A 
ATOM     24  C   LIG    1       49.513  58.119  41.397  0.00  0.00    +0.019 A 
ATOM     25  C   LIG    1       49.043  59.203  40.663  0.00  0.00    +0.082 A 
ATOM     26  N   LIG    1       47.742  59.522  40.774  0.00  0.00    -0.241 NA
ATOM     27  C   LIG    1       47.211  60.552  40.083  0.00  0.00    +0.154 A 
ATOM     32  C   LIG    1       48.014  61.334  39.237  0.00  0.00    +0.038 A 
BRANCH  27  28
ATOM     28  C   LIG    1       45.748  60.791  40.341  0.00  0.00    +0.435 C 
ATOM     29  F   LIG    1       45.586  62.037  40.735  0.00  0.00    -0.164 F 
ATOM     30  F   LIG    1       45.197  59.952  41.198  0.00  0.00    -0.164 F 
ATOM     31  F   LIG    1       45.139  60.660  39.182  0.00  0.00    -0.164 F 
ENDBRANCH  27  28
ENDBRANCH   2   1
BRANCH   5   6
ATOM      6  C   LIG    1       52.717  64.339  36.000  0.00  0.00    +0.077 C 
ATOM      7  C   LIG    1       53.997  64.152  36.829  0.00  0.00    +0.044 C 
ATOM      8  C   LIG    1       55.129  64.158  35.802  0.00  0.00    +0.150 C 
ATOM     16  N   LIG    1       54.498  63.692  34.572  0.00  0.00    -0.209 NA
ATOM     17  C   LIG    1       53.049  63.609  34.688  0.00  0.00    +0.105 C 
BRANCH   8   9
ATOM      9  C   LIG    1       56.329  63.330  36.223  0.00  0.00    +0.242 C 
ATOM     10  O   LIG    1       56.514  62.226  35.711  0.00  0.00    -0.273 OA
ATOM     11  N   LIG    1       57.163  63.883  37.115  0.00  0.00    -0.268 N 
ATOM     12  C   LIG    1       56.873  65.202  37.691  0.00  0.00    +0.106 C 
ATOM     13  C   LIG    1       57.964  65.647  38.671  0.00  0.00    +0.081 C 
ATOM     14  S   LIG    1       58.809  64.188  39.061  0.00  0.00    -0.117 S 
ATOM     15  C   LIG    1       58.399  63.260  37.607  0.00  0.00    +0.152 C 
ENDBRANCH   8   9
ENDBRANCH   5   6
TORSDOF 4
ENDMDL
MODEL 2
REMARK VINA RESULT:    -7.697      7.770      9.519
REMARK INTER + INTRA:         -10.158
REMARK INTER:                  -9.471
REMARK INTRA:                  -0.687
REMARK UNBOUND:                -0.660
REMARK  Name = ligand_1
REMARK                            x       y       z     vdW  Elec       q    Type
REMARK                         _______ _______ _______ _____ _____    ______ ____
ROOT
ATOM      2  N   LIG    1       55.352  55.688  39.769  0.00  0.00    -0.305 N 
ATOM      3  C   LIG    1       55.931  54.356  39.627  0.00  0.00    +0.108 C 
ATOM      4  C   LIG    1       56.259  54.109  38.150  0.00  0.00    +0.094 C 
ATOM      5  N   LIG    1       57.081  55.210  37.625  0.00  0.00    -0.270 NA
ATOM     18  C   LIG    1       56.509  56.540  37.783  0.00  0.00    +0.094 C 
ATOM     19  C   LIG    1       56.188  56.784  39.256  0.00  0.00    +0.108 C 
ENDROOT
BRANCH   2   1
ATOM      1  C   LIG    1       54.635  55.942  40.990  0.00  0.00    +0.051 A 
ATOM     20  C   LIG    1       53.420  56.666  41.021  0.00  0.00    +0.031 A 
ATOM     21  C   LIG    1       52.905  57.284  39.885  0.00  0.00    +0.003 A 
ATOM     22  C   LIG    1       51.709  57.994  39.944  0.00  0.00    +0.000 A 
ATOM     23  C   LIG    1       51.003  58.107  41.142  0.00  0.00    +0.002 A 
ATOM     24  C   LIG    1       51.502  57.494  42.287  0.00  0.00    +0.019 A 
ATOM     25  C   LIG    1       52.696  56.783  42.222  0.00  0.00    +0.082 A 
ATOM     26  N   LIG    1       53.154  56.217  43.352  0.00  0.00    -0.241 NA
ATOM     27  C   LIG    1       54.311  55.524  43.369  0.00  0.00    +0.154 A 
ATOM     32  C   LIG    1       55.063  55.359  42.195  0.00  0.00    +0.038 A 
BRANCH  27  28
ATOM     28  C   LIG    1       54.666  54.933  44.707  0.00  0.00    +0.435 C 
ATOM     29  F   LIG    1       55.967  54.725  44.745  0.00  0.00    -0.164 F 
ATOM     30  F   LIG    1       54.007  53.832  45.014  0.00  0.00    -0.164 F 
ATOM     31  F   LIG    1       54.385  55.851  45.606  0.00  0.00    -0.164 F 
ENDBRANCH  27  28
ENDBRANCH   2   1
BRANCH   5   6
ATOM      6  C   LIG    1       57.372  54.986  36.181  0.00  0.00    +0.077 C 
ATOM      7  C   LIG    1       56.217  54.293  35.442  0.00  0.00    +0.044 C 
ATOM      8  C   LIG    1       56.370  54.732  33.986  0.00  0.00    +0.150 C 
ATOM     16  N   LIG    1       57.051  56.019  34.070  0.00  0.00    -0.209 NA
ATOM     17  C   LIG    1       57.523  56.311  35.417  0.00  0.00    +0.105 C 
BRANCH   8   9
ATOM      9  C   LIG    1       55.055  54.786  33.231  0.00  0.00    +0.242 C 
ATOM     10  O   LIG    1       54.012  55.011  33.845  0.00  0.00    -0.273 OA
ATOM     11  N   LIG    1       55.112  54.627  31.902  0.00  0.00    -0.268 N 
ATOM     12  C   LIG    1       56.393  54.352  31.237  0.00  0.00    +0.106 C 
ATOM     13  C   LIG    1       56.230  54.225  29.718  0.00  0.00    +0.081 C 
ATOM     14  S   LIG    1       54.535  53.959  29.492  0.00  0.00    -0.117 S 
ATOM     15  C   LIG    1       53.957  54.695  30.997  0.00  0.00    +0.152 C 
ENDBRANCH   8   9
ENDBRANCH   5   6
TORSDOF 4
ENDMDL
MODEL 3
REMARK VINA RESULT:    -7.601      5.283      7.002
REMARK INTER + INTRA:         -10.039
REMARK INTER:                  -9.608
REMARK INTRA:                  -0.431
REMARK UNBOUND:                -0.660
REMARK  Name = ligand_1
REMARK                            x       y       z     vdW  Elec       q    Type
REMARK                         _______ _______ _______ _____ _____    ______ ____
ROOT
ATOM      2  N   LIG    1       53.561  57.953  38.788  0.00  0.00    -0.305 N 
ATOM      3  C   LIG    1       54.559  58.928  38.361  0.00  0.00    +0.108 C 
ATOM      4  C   LIG    1       54.056  59.638  37.100  0.00  0.00    +0.094 C 
ATOM      5  N   LIG    1       52.708  60.180  37.330  0.00  0.00    -0.270 NA
ATOM     18  C   LIG    1       51.717  59.208  37.772  0.00  0.00    +0.094 C 
ATOM     19  C   LIG    1       52.220  58.507  39.032  0.00  0.00    +0.108 C 
ENDROOT
BRANCH   2   1
ATOM      1  C   LIG    1       54.014  56.938  39.701  0.00  0.00    +0.051 A 
ATOM     20  C   LIG    1       54.828  55.856  39.291  0.00  0.00    +0.031 A 
ATOM     21  C   LIG    1       55.140  55.639  37.952  0.00  0.00    +0.003 A 
ATOM     22  C   LIG    1       55.939  54.563  37.575  0.00  0.00    +0.000 A 
ATOM     23  C   LIG    1       56.441  53.676  38.529  0.00  0.00    +0.002 A 
ATOM     24  C   LIG    1       56.141  53.879  39.872  0.00  0.00    +0.019 A 
ATOM     25  C   LIG    1       55.344  54.957  40.244  0.00  0.00    +0.082 A 
ATOM     26  N   LIG    1       55.064  55.112  41.549  0.00  0.00    -0.241 NA
ATOM     27  C   LIG    1       54.286  56.126  41.983  0.00  0.00    +0.154 A 
ATOM     32  C   LIG    1       53.761  57.062  41.078  0.00  0.00    +0.038 A 
BRANCH  27  28
ATOM     28  C   LIG    1       54.093  56.171  43.475  0.00  0.00    +0.435 C 
ATOM     29  F   LIG    1       54.993  56.980  43.994  0.00  0.00    -0.164 F 
ATOM     30  F   LIG    1       54.123  54.993  44.069  0.00  0.00    -0.164 F 
ATOM     31  F   LIG    1       52.910  56.710  43.681  0.00  0.00    -0.164 F 
ENDBRANCH  27  28
ENDBRANCH   2   1
BRANCH   5   6
ATOM      6  C   LIG    1       52.206  60.842  36.093  0.00  0.00    +0.077 C 
ATOM      7  C   LIG    1       51.581  62.218  36.367  0.00  0.00    +0.044 C 
ATOM      8  C   LIG    1       51.743  62.985  35.055  0.00  0.00    +0.150 C 
ATOM     16  N   LIG    1       52.909  62.375  34.425  0.00  0.00    -0.209 NA
ATOM     17  C   LIG    1       53.347  61.170  35.117  0.00  0.00    +0.105 C 
BRANCH   8   9
ATOM      9  C   LIG    1       51.867  64.485  35.245  0.00  0.00    +0.242 C 
ATOM     10  O   LIG    1       52.181  64.932  36.347  0.00  0.00    -0.273 OA
ATOM     11  N   LIG    1       51.667  65.252  34.164  0.00  0.00    -0.268 N 
ATOM     12  C   LIG    1       51.284  64.648  32.880  0.00  0.00    +0.106 C 
ATOM     13  C   LIG    1       51.126  65.703  31.780  0.00  0.00    +0.081 C 
ATOM     14  S   LIG    1       50.972  67.197  32.640  0.00  0.00    -0.117 S 
ATOM     15  C   LIG    1       51.790  66.715  34.137  0.00  0.00    +0.152 C 
ENDBRANCH   8   9
ENDBRANCH   5   6
TORSDOF 4
ENDMDL
MODEL 4
REMARK VINA RESULT:    -6.902      5.535      7.384
REMARK INTER + INTRA:          -9.177
REMARK INTER:                  -8.392
REMARK INTRA:                  -0.784
REMARK UNBOUND:                -0.660
REMARK  Name = ligand_1
REMARK                            x       y       z     vdW  Elec       q    Type
REMARK                         _______ _______ _______ _____ _____    ______ ____
ROOT
ATOM      2  N   LIG    1       50.080  62.578  32.804  0.00  0.00    -0.305 N 
ATOM      3  C   LIG    1       51.396  62.657  32.178  0.00  0.00    +0.108 C 
ATOM      4  C   LIG    1       52.305  63.544  33.036  0.00  0.00    +0.094 C 
ATOM      5  N   LIG    1       52.300  63.073  34.429  0.00  0.00    -0.270 NA
ATOM     18  C   LIG    1       50.984  62.979  35.047  0.00  0.00    +0.094 C 
ATOM     19  C   LIG    1       50.083  62.090  34.192  0.00  0.00    +0.108 C 
ENDROOT
BRANCH   2   1
ATOM      1  C   LIG    1       49.003  62.125  31.965  0.00  0.00    +0.051 A 
ATOM     20  C   LIG    1       47.810  62.865  31.793  0.00  0.00    +0.031 A 
ATOM     21  C   LIG    1       47.553  64.022  32.524  0.00  0.00    +0.003 A 
ATOM     22  C   LIG    1       46.368  64.729  32.339  0.00  0.00    +0.000 A 
ATOM     23  C   LIG    1       45.410  64.293  31.422  0.00  0.00    +0.002 A 
ATOM     24  C   LIG    1       45.652  63.141  30.681  0.00  0.00    +0.019 A 
ATOM     25  C   LIG    1       46.839  62.439  30.868  0.00  0.00    +0.082 A 
ATOM     26  N   LIG    1       47.030  61.322  30.145  0.00  0.00    -0.241 NA
ATOM     27  C   LIG    1       48.150  60.581  30.282  0.00  0.00    +0.154 A 
ATOM     32  C   LIG    1       49.159  60.972  31.176  0.00  0.00    +0.038 A 
BRANCH  27  28
ATOM     28  C   LIG    1       48.218  59.378  29.381  0.00  0.00    +0.435 C 
ATOM     29  F   LIG    1       47.039  58.789  29.372  0.00  0.00    -0.164 F 
ATOM     30  F   LIG    1       49.170  58.517  29.686  0.00  0.00    -0.164 F 
ATOM     31  F   LIG    1       48.443  59.834  28.167  0.00  0.00    -0.164 F 
ENDBRANCH  27  28
ENDBRANCH   2   1
BRANCH   5   6
ATOM      6  C   LIG    1       53.157  63.956  35.270  0.00  0.00    +0.077 C 
ATOM      7  C   LIG    1       54.112  63.166  36.178  0.00  0.00    +0.044 C 
ATOM      8  C   LIG    1       55.286  64.115  36.423  0.00  0.00    +0.150 C 
ATOM     16  N   LIG    1       55.295  64.984  35.251  0.00  0.00    -0.209 NA
ATOM     17  C   LIG    1       54.115  64.803  34.416  0.00  0.00    +0.105 C 
BRANCH   8   9
ATOM      9  C   LIG    1       56.601  63.398  36.661  0.00  0.00    +0.242 C 
ATOM     10  O   LIG    1       56.879  62.404  35.991  0.00  0.00    -0.273 OA
ATOM     11  N   LIG    1       57.423  63.928  37.577  0.00  0.00    -0.268 N 
ATOM     12  C   LIG    1       57.020  65.113  38.346  0.00  0.00    +0.106 C 
ATOM     13  C   LIG    1       58.116  65.558  39.321  0.00  0.00    +0.081 C 
ATOM     14  S   LIG    1       59.152  64.179  39.458  0.00  0.00    -0.117 S 
ATOM     15  C   LIG    1       58.755  63.407  37.912  0.00  0.00    +0.152 C 
ENDBRANCH   8   9
ENDBRANCH   5   6
TORSDOF 4
ENDMDL
MODEL 5
REMARK VINA RESULT:    -6.845      5.830      7.374
REMARK INTER + INTRA:          -9.106
REMARK INTER:                  -8.558
REMARK INTRA:                  -0.547
REMARK UNBOUND:                -0.660
REMARK  Name = ligand_1
REMARK                            x       y       z     vdW  Elec       q    Type
REMARK                         _______ _______ _______ _____ _____    ______ ____
ROOT
ATOM      2  N   LIG    1       52.766  56.621  40.045  0.00  0.00    -0.305 N 
ATOM      3  C   LIG    1       52.892  55.459  39.170  0.00  0.00    +0.108 C 
ATOM      4  C   LIG    1       54.005  55.721  38.150  0.00  0.00    +0.094 C 
ATOM      5  N   LIG    1       55.240  56.123  38.842  0.00  0.00    -0.270 NA
ATOM     18  C   LIG    1       55.108  57.273  39.727  0.00  0.00    +0.094 C 
ATOM     19  C   LIG    1       54.001  57.005  40.745  0.00  0.00    +0.108 C 
ENDROOT
BRANCH   2   1
ATOM      1  C   LIG    1       51.543  56.722  40.795  0.00  0.00    +0.051 A 
ATOM     20  C   LIG    1       50.749  57.892  40.801  0.00  0.00    +0.031 A 
ATOM     21  C   LIG    1       51.166  59.065  40.177  0.00  0.00    +0.003 A 
ATOM     22  C   LIG    1       50.367  60.204  40.201  0.00  0.00    +0.000 A 
ATOM     23  C   LIG    1       49.134  60.200  40.855  0.00  0.00    +0.002 A 
ATOM     24  C   LIG    1       48.700  59.036  41.482  0.00  0.00    +0.019 A 
ATOM     25  C   LIG    1       49.501  57.898  41.452  0.00  0.00    +0.082 A 
ATOM     26  N   LIG    1       49.055  56.798  42.082  0.00  0.00    -0.241 NA
ATOM     27  C   LIG    1       49.782  55.662  42.107  0.00  0.00    +0.154 A 
ATOM     32  C   LIG    1       51.025  55.594  41.457  0.00  0.00    +0.038 A 
BRANCH  27  28
ATOM     28  C   LIG    1       49.128  54.516  42.831  0.00  0.00    +0.435 C 
ATOM     29  F   LIG    1       48.280  55.003  43.714  0.00  0.00    -0.164 F 
ATOM     30  F   LIG    1       49.969  53.675  43.402  0.00  0.00    -0.164 F 
ATOM     31  F   LIG    1       48.429  53.858  41.931  0.00  0.00    -0.164 F 
ENDBRANCH  27  28
ENDBRANCH   2   1
BRANCH   5   6
ATOM      6  C   LIG    1       56.312  56.410  37.848  0.00  0.00    +0.077 C 
ATOM      7  C   LIG    1       56.426  55.325  36.767  0.00  0.00    +0.044 C 
ATOM      8  C   LIG    1       57.024  56.044  35.557  0.00  0.00    +0.150 C 
ATOM     16  N   LIG    1       56.614  57.433  35.729  0.00  0.00    -0.209 NA
ATOM     17  C   LIG    1       56.010  57.678  37.032  0.00  0.00    +0.105 C 
BRANCH   8   9
ATOM      9  C   LIG    1       56.601  55.443  34.229  0.00  0.00    +0.242 C 
ATOM     10  O   LIG    1       55.650  54.664  34.192  0.00  0.00    -0.273 OA
ATOM     11  N   LIG    1       57.276  55.842  33.143  0.00  0.00    -0.268 N 
ATOM     12  C   LIG    1       58.409  56.769  33.264  0.00  0.00    +0.106 C 
ATOM     13  C   LIG    1       59.020  57.103  31.899  0.00  0.00    +0.081 C 
ATOM     14  S   LIG    1       58.438  55.854  30.853  0.00  0.00    -0.117 S 
ATOM     15  C   LIG    1       56.985  55.411  31.768  0.00  0.00    +0.152 C 
ENDBRANCH   8   9
ENDBRANCH   5   6
TORSDOF 4
ENDMDL
MODEL 6
REMARK VINA RESULT:    -6.000      5.477      7.144
REMARK INTER + INTRA:          -8.063
REMARK INTER:                  -7.893
REMARK INTRA:                  -0.170
REMARK UNBOUND:                -0.660
REMARK  Name = ligand_1
REMARK                            x       y       z     vdW  Elec       q    Type
REMARK                         _______ _______ _______ _____ _____    ______ ____
ROOT
ATOM      2  N   LIG    1       50.539  61.441  32.160  0.00  0.00    -0.305 N 
ATOM      3  C   LIG    1       51.781  61.909  31.552  0.00  0.00    +0.108 C 
ATOM      4  C   LIG    1       52.466  62.890  32.510  0.00  0.00    +0.094 C 
ATOM      5  N   LIG    1       52.610  62.279  33.840  0.00  0.00    -0.270 NA
ATOM     18  C   LIG    1       51.372  61.797  34.438  0.00  0.00    +0.094 C 
ATOM     19  C   LIG    1       50.694  60.817  33.483  0.00  0.00    +0.108 C 
ENDROOT
BRANCH   2   1
ATOM      1  C   LIG    1       49.584  60.836  31.270  0.00  0.00    +0.051 A 
ATOM     20  C   LIG    1       49.701  59.498  30.827  0.00  0.00    +0.031 A 
ATOM     21  C   LIG    1       50.816  58.719  31.128  0.00  0.00    +0.003 A 
ATOM     22  C   LIG    1       50.907  57.407  30.675  0.00  0.00    +0.000 A 
ATOM     23  C   LIG    1       49.888  56.842  29.906  0.00  0.00    +0.002 A 
ATOM     24  C   LIG    1       48.766  57.605  29.598  0.00  0.00    +0.019 A 
ATOM     25  C   LIG    1       48.678  58.916  30.055  0.00  0.00    +0.082 A 
ATOM     26  N   LIG    1       47.586  59.626  29.724  0.00  0.00    -0.241 NA
ATOM     27  C   LIG    1       47.437  60.907  30.119  0.00  0.00    +0.154 A 
ATOM     32  C   LIG    1       48.417  61.530  30.907  0.00  0.00    +0.038 A 
BRANCH  27  28
ATOM     28  C   LIG    1       46.146  61.549  29.687  0.00  0.00    +0.435 C 
ATOM     29  F   LIG    1       45.264  61.422  30.658  0.00  0.00    -0.164 F 
ATOM     30  F   LIG    1       45.659  61.092  28.549  0.00  0.00    -0.164 F 
ATOM     31  F   LIG    1       46.398  62.833  29.546  0.00  0.00    -0.164 F 
ENDBRANCH  27  28
ENDBRANCH   2   1
BRANCH   5   6
ATOM      6  C   LIG    1       53.247  63.244  34.779  0.00  0.00    +0.077 C 
ATOM      7  C   LIG    1       54.204  62.565  35.771  0.00  0.00    +0.044 C 
ATOM      8  C   LIG    1       55.204  63.656  36.153  0.00  0.00    +0.150 C 
ATOM     16  N   LIG    1       55.214  64.552  35.001  0.00  0.00    -0.209 NA
ATOM     17  C   LIG    1       54.161  64.238  34.045  0.00  0.00    +0.105 C 
BRANCH   8   9
ATOM      9  C   LIG    1       56.574  63.117  36.518  0.00  0.00    +0.242 C 
ATOM     10  O   LIG    1       56.973  62.075  35.999  0.00  0.00    -0.273 OA
ATOM     11  N   LIG    1       57.307  63.849  37.369  0.00  0.00    -0.268 N 
ATOM     12  C   LIG    1       56.761  65.080  37.956  0.00  0.00    +0.106 C 
ATOM     13  C   LIG    1       57.772  65.764  38.883  0.00  0.00    +0.081 C 
ATOM     14  S   LIG    1       58.933  64.531  39.234  0.00  0.00    -0.117 S 
ATOM     15  C   LIG    1       58.671  63.518  37.802  0.00  0.00    +0.152 C 
ENDBRANCH   8   9
ENDBRANCH   5   6
TORSDOF 4
ENDMDL
