MODEL 1
REMARK VINA RESULT:   -10.156      0.000      0.000
REMARK INTER + INTRA:          -2.563
REMARK INTER:                 -15.797
REMARK INTRA:                  13.233
REMARK UNBOUND:                13.233
REMARK  Name = 3178
REMARK                            x       y       z     vdW  Elec       q    Type
REMARK                         _______ _______ _______ _____ _____    ______ ____
ROOT
ATOM      1  C   LIG    1       52.157  63.134  36.586  0.00  0.00    +0.132 C 
ENDROOT
BRANCH   1   5
ATOM      2  C   LIG    1       54.932  64.237  36.290  0.00  0.00    +0.129 A 
ATOM      3  C   LIG    1       54.346  64.550  37.037  0.00  0.00    +0.046 A 
ATOM      4  C   LIG    1       53.421  64.183  37.136  0.00  0.00    +0.008 A 
ATOM      5  C   LIG    1       53.082  63.502  36.487  0.00  0.00    -0.033 A 
ATOM      6  C   LIG    1       53.668  63.187  35.740  0.00  0.00    +0.008 A 
ATOM      7  C   LIG    1       54.593  63.555  35.642  0.00  0.00    +0.046 A 
BRANCH   2   8
ATOM      8  O   LIG    1       55.857  64.604  36.191  0.00  0.00    -0.455 OA
BRANCH   8   9
ATOM      9  C   LIG    1       56.569  64.347  36.843  0.00  0.00    +0.146 A 
ATOM     10  C   LIG    1       57.095  63.496  36.833  0.00  0.00    +0.065 A 
ATOM     11  C   LIG    1       57.732  63.519  37.604  0.00  0.00    +0.091 A 
ATOM     12  N   LIG    1       57.600  64.382  38.090  0.00  0.00    -0.334 N 
ATOM     13  C   LIG    1       56.881  64.894  37.620  0.00  0.00    +0.133 A 
BRANCH  12  14
ATOM     14  C   LIG    1       58.098  64.682  38.904  0.00  0.00    +0.149 C 
ATOM     15  C   LIG    1       58.221  65.658  39.083  0.00  0.00    +0.048 C 
BRANCH  14  16
ATOM     16  N   LIG    1       58.474  64.006  39.537  0.00  0.00    -0.311 NA
ATOM     17  H   LIG    1       58.126  63.526  39.720  0.00  0.00    +0.120 HD
ATOM     18  H   LIG    1       59.054  64.066  39.747  0.00  0.00    +0.120 HD
ENDBRANCH  14  16
ENDBRANCH  12  14
ENDBRANCH   8   9
ENDBRANCH   2   8
ENDBRANCH   1   5
BRANCH   1  19
ATOM     19  C   LIG    1       52.017  62.147  36.661  0.00  0.00    +0.313 C 
ATOM     20  O   LIG    1       52.059  61.572  35.843  0.00  0.00    -0.250 OA
BRANCH  19  21
ATOM     21  O   LIG    1       51.835  61.734  37.553  0.00  0.00    -0.480 OA
ATOM     22  H   LIG    1       51.856  62.082  38.066  0.00  0.00    +0.295 HD
ENDBRANCH  19  21
ENDBRANCH   1  19
BRANCH   1  23
ATOM     23  C   LIG    1       51.373  63.754  36.610  0.00  0.00    +0.054 C 
BRANCH  23  24
ATOM     24  C   LIG    1       50.835  63.913  35.783  0.00  0.00    -0.046 A 
ATOM     25  C   LIG    1       49.924  63.425  35.648  0.00  0.00    +0.004 A 
ATOM     26  C   LIG    1       49.372  63.598  34.782  0.00  0.00    +0.009 A 
ATOM     27  C   LIG    1       49.738  64.257  34.062  0.00  0.00    -0.018 A 
ATOM     28  C   LIG    1       49.202  64.418  33.234  0.00  0.00    +0.009 A 
ATOM     29  C   LIG    1       49.540  65.048  32.534  0.00  0.00    +0.016 A 
ATOM     30  C   LIG    1       50.415  65.516  32.664  0.00  0.00    +0.061 A 
ATOM     31  C   LIG    1       50.950  65.354  33.493  0.00  0.00    +0.024 A 
ATOM     32  C   LIG    1       50.612  64.725  34.192  0.00  0.00    -0.017 A 
ATOM     33  C   LIG    1       51.181  64.567  35.050  0.00  0.00    +0.012 A 
BRANCH  30  34
ATOM     34  C   LIG    1       50.753  66.145  31.964  0.00  0.00    +0.266 C 
ATOM     35  N   LIG    1       50.577  67.126  32.047  0.00  0.00    -0.288 N 
ATOM     36  H   LIG    1       50.258  67.344  32.532  0.00  0.00    +0.301 HD
ATOM     37  H   LIG    1       50.787  67.516  31.614  0.00  0.00    +0.301 HD
BRANCH  34  38
ATOM     38  N   LIG    1       51.268  65.794  31.182  0.00  0.00    -0.250 N 
ATOM     39  H   LIG    1       51.040  65.324  30.848  0.00  0.00    +0.288 HD
ATOM     40  H   LIG    1       51.814  66.046  31.032  0.00  0.00    +0.288 HD
ENDBRANCH  34  38
ENDBRANCH  30  34
ENDBRANCH  23  24
ENDBRANCH   1  23
TORSDOF 11
ENDMDL
MODEL 2
REMARK VINA RESULT:    -9.798      1.723      2.306
REMARK INTER + INTRA:          -2.006
REMARK INTER:                 -16.075
REMARK INTRA:                  14.068
REMARK UNBOUND:                13.233
REMARK  Name = 3178
REMARK                            x       y       z     vdW  Elec       q    Type
REMARK                         _______ _______ _______ _____ _____    ______ ____
ROOT
ATOM      1  C   LIG    1       53.490  64.549  34.405  0.00  0.00    +0.132 C 
ENDROOT
BRANCH   1   5
ATOM      2  C   LIG    1       55.736  63.753  36.226  0.00  0.00    +0.129 A 
ATOM      3  C   LIG    1       55.812  64.581  35.671  0.00  0.00    +0.046 A 
ATOM      4  C   LIG    1       55.063  64.846  35.064  0.00  0.00    +0.008 A 
ATOM      5  C   LIG    1       54.238  64.284  35.012  0.00  0.00    -0.033 A 
ATOM      6  C   LIG    1       54.161  63.455  35.567  0.00  0.00    +0.008 A 
ATOM      7  C   LIG    1       54.911  63.190  36.175  0.00  0.00    +0.046 A 
BRANCH   2   8
ATOM      8  O   LIG    1       56.485  63.487  36.834  0.00  0.00    -0.455 OA
BRANCH   8   9
ATOM      9  C   LIG    1       56.666  64.013  37.664  0.00  0.00    +0.146 A 
ATOM     10  C   LIG    1       56.025  64.158  38.419  0.00  0.00    +0.065 A 
ATOM     11  C   LIG    1       56.482  64.722  39.107  0.00  0.00    +0.091 A 
ATOM     12  N   LIG    1       57.404  64.925  38.779  0.00  0.00    -0.334 N 
ATOM     13  C   LIG    1       57.518  64.487  37.887  0.00  0.00    +0.133 A 
BRANCH  12  14
ATOM     14  C   LIG    1       58.092  65.471  39.257  0.00  0.00    +0.149 C 
ATOM     15  C   LIG    1       58.400  65.199  40.169  0.00  0.00    +0.048 C 
BRANCH  14  16
ATOM     16  N   LIG    1       58.473  66.288  38.823  0.00  0.00    -0.311 NA
ATOM     17  H   LIG    1       58.111  66.650  38.475  0.00  0.00    +0.120 HD
ATOM     18  H   LIG    1       59.070  66.431  38.904  0.00  0.00    +0.120 HD
ENDBRANCH  14  16
ENDBRANCH  12  14
ENDBRANCH   8   9
ENDBRANCH   2   8
ENDBRANCH   1   5
BRANCH   1  19
ATOM     19  C   LIG    1       53.489  64.249  33.451  0.00  0.00    +0.313 C 
ATOM     20  O   LIG    1       53.386  63.278  33.232  0.00  0.00    -0.250 OA
BRANCH  19  21
ATOM     21  O   LIG    1       53.592  64.918  32.715  0.00  0.00    -0.480 OA
ATOM     22  H   LIG    1       53.628  64.728  32.126  0.00  0.00    +0.295 HD
ENDBRANCH  19  21
ENDBRANCH   1  19
BRANCH   1  23
ATOM     23  C   LIG    1       52.741  65.115  34.750  0.00  0.00    +0.054 C 
BRANCH  23  24
ATOM     24  C   LIG    1       51.801  64.777  34.717  0.00  0.00    -0.046 A 
ATOM     25  C   LIG    1       51.425  64.197  35.497  0.00  0.00    +0.004 A 
ATOM     26  C   LIG    1       50.444  63.849  35.452  0.00  0.00    +0.009 A 
ATOM     27  C   LIG    1       49.852  64.087  34.628  0.00  0.00    -0.018 A 
ATOM     28  C   LIG    1       48.911  63.750  34.592  0.00  0.00    +0.009 A 
ATOM     29  C   LIG    1       48.331  63.971  33.808  0.00  0.00    +0.016 A 
ATOM     30  C   LIG    1       48.692  64.528  33.060  0.00  0.00    +0.061 A 
ATOM     31  C   LIG    1       49.633  64.864  33.096  0.00  0.00    +0.024 A 
ATOM     32  C   LIG    1       50.213  64.644  33.880  0.00  0.00    -0.017 A 
ATOM     33  C   LIG    1       51.191  65.002  33.904  0.00  0.00    +0.012 A 
BRANCH  30  34
ATOM     34  C   LIG    1       48.112  64.748  32.276  0.00  0.00    +0.266 C 
ATOM     35  N   LIG    1       47.361  65.400  32.377  0.00  0.00    -0.288 N 
ATOM     36  H   LIG    1       47.255  65.668  32.926  0.00  0.00    +0.301 HD
ATOM     37  H   LIG    1       47.001  65.537  31.891  0.00  0.00    +0.301 HD
BRANCH  34  38
ATOM     38  N   LIG    1       48.283  64.315  31.391  0.00  0.00    -0.250 N 
ATOM     39  H   LIG    1       48.475  64.657  30.911  0.00  0.00    +0.288 HD
ATOM     40  H   LIG    1       48.196  63.705  31.322  0.00  0.00    +0.288 HD
ENDBRANCH  34  38
ENDBRANCH  30  34
ENDBRANCH  23  24
ENDBRANCH   1  23
TORSDOF 11
ENDMDL
MODEL 3
REMARK VINA RESULT:    -9.720      2.705      3.647
REMARK INTER + INTRA:          -1.885
REMARK INTER:                 -15.153
REMARK INTRA:                  13.267
REMARK UNBOUND:                13.233
REMARK  Name = 3178
REMARK                            x       y       z     vdW  Elec       q    Type
REMARK                         _______ _______ _______ _____ _____    ______ ____
ROOT
ATOM      1  C   LIG    1       53.621  64.458  34.403  0.00  0.00    +0.132 C 
ENDROOT
BRANCH   1   5
ATOM      2  C   LIG    1       56.048  63.716  36.001  0.00  0.00    +0.129 A 
ATOM      3  C   LIG    1       55.907  64.664  35.717  0.00  0.00    +0.046 A 
ATOM      4  C   LIG    1       55.098  64.911  35.184  0.00  0.00    +0.008 A 
ATOM      5  C   LIG    1       54.430  64.210  34.935  0.00  0.00    -0.033 A 
ATOM      6  C   LIG    1       54.571  63.261  35.219  0.00  0.00    +0.008 A 
ATOM      7  C   LIG    1       55.380  63.014  35.752  0.00  0.00    +0.046 A 
BRANCH   2   8
ATOM      8  O   LIG    1       56.858  63.467  36.534  0.00  0.00    -0.455 OA
BRANCH   8   9
ATOM      9  C   LIG    1       56.973  63.820  37.462  0.00  0.00    +0.146 A 
ATOM     10  C   LIG    1       56.358  63.653  38.234  0.00  0.00    +0.065 A 
ATOM     11  C   LIG    1       56.727  64.132  39.031  0.00  0.00    +0.091 A 
ATOM     12  N   LIG    1       57.569  64.594  38.752  0.00  0.00    -0.334 N 
ATOM     13  C   LIG    1       57.720  64.402  37.783  0.00  0.00    +0.133 A 
BRANCH  12  14
ATOM     14  C   LIG    1       58.156  65.151  39.339  0.00  0.00    +0.149 C 
ATOM     15  C   LIG    1       58.412  66.076  39.057  0.00  0.00    +0.048 C 
BRANCH  14  16
ATOM     16  N   LIG    1       58.487  64.784  40.209  0.00  0.00    -0.311 NA
ATOM     17  H   LIG    1       58.860  65.126  40.567  0.00  0.00    +0.120 HD
ATOM     18  H   LIG    1       58.318  64.216  40.389  0.00  0.00    +0.120 HD
ENDBRANCH  14  16
ENDBRANCH  12  14
ENDBRANCH   8   9
ENDBRANCH   2   8
ENDBRANCH   1   5
BRANCH   1  19
ATOM     19  C   LIG    1       53.560  64.202  33.438  0.00  0.00    +0.313 C 
ATOM     20  O   LIG    1       53.476  63.240  33.179  0.00  0.00    -0.250 OA
BRANCH  19  21
ATOM     21  O   LIG    1       53.585  64.909  32.730  0.00  0.00    -0.480 OA
ATOM     22  H   LIG    1       53.837  65.462  32.853  0.00  0.00    +0.295 HD
ENDBRANCH  19  21
ENDBRANCH   1  19
BRANCH   1  23
ATOM     23  C   LIG    1       52.872  64.961  34.834  0.00  0.00    +0.054 C 
BRANCH  23  24
ATOM     24  C   LIG    1       52.065  64.471  35.163  0.00  0.00    -0.046 A 
ATOM     25  C   LIG    1       51.254  64.311  34.528  0.00  0.00    +0.004 A 
ATOM     26  C   LIG    1       50.418  63.800  34.881  0.00  0.00    +0.009 A 
ATOM     27  C   LIG    1       50.403  63.457  35.865  0.00  0.00    -0.018 A 
ATOM     28  C   LIG    1       49.597  62.967  36.197  0.00  0.00    +0.009 A 
ATOM     29  C   LIG    1       49.569  62.632  37.139  0.00  0.00    +0.016 A 
ATOM     30  C   LIG    1       50.347  62.786  37.748  0.00  0.00    +0.061 A 
ATOM     31  C   LIG    1       51.153  63.276  37.416  0.00  0.00    +0.024 A 
ATOM     32  C   LIG    1       51.181  63.611  36.474  0.00  0.00    -0.017 A 
ATOM     33  C   LIG    1       52.028  64.119  36.143  0.00  0.00    +0.012 A 
BRANCH  30  34
ATOM     34  C   LIG    1       50.319  62.451  38.690  0.00  0.00    +0.266 C 
ATOM     35  N   LIG    1       50.540  61.496  38.887  0.00  0.00    -0.288 N 
ATOM     36  H   LIG    1       50.695  61.111  38.426  0.00  0.00    +0.301 HD
ATOM     37  H   LIG    1       50.523  61.288  39.471  0.00  0.00    +0.301 HD
BRANCH  34  38
ATOM     38  N   LIG    1       50.069  63.070  39.434  0.00  0.00    -0.250 N 
ATOM     39  H   LIG    1       49.601  62.925  39.814  0.00  0.00    +0.288 HD
ATOM     40  H   LIG    1       50.382  63.599  39.515  0.00  0.00    +0.288 HD
ENDBRANCH  34  38
ENDBRANCH  30  34
ENDBRANCH  23  24
ENDBRANCH   1  23
TORSDOF 11
ENDMDL
MODEL 4
REMARK VINA RESULT:    -9.003      3.858      6.212
REMARK INTER + INTRA:          -0.770
REMARK INTER:                 -14.121
REMARK INTRA:                  13.351
REMARK UNBOUND:                13.233
REMARK  Name = 3178
REMARK                            x       y       z     vdW  Elec       q    Type
REMARK                         _______ _______ _______ _____ _____    ______ ____
ROOT
ATOM      1  C   LIG    1       51.612  63.029  37.070  0.00  0.00    +0.132 C 
ENDROOT
BRANCH   1   5
ATOM      2  C   LIG    1       50.055  61.826  39.333  0.00  0.00    +0.129 A 
ATOM      3  C   LIG    1       50.637  61.247  38.763  0.00  0.00    +0.046 A 
ATOM      4  C   LIG    1       51.156  61.648  38.009  0.00  0.00    +0.008 A 
ATOM      5  C   LIG    1       51.093  62.629  37.824  0.00  0.00    -0.033 A 
ATOM      6  C   LIG    1       50.511  63.209  38.394  0.00  0.00    +0.008 A 
ATOM      7  C   LIG    1       49.991  62.807  39.149  0.00  0.00    +0.046 A 
BRANCH   2   8
ATOM      8  O   LIG    1       49.535  61.426  40.089  0.00  0.00    -0.455 OA
BRANCH   8   9
ATOM      9  C   LIG    1       48.599  61.108  39.938  0.00  0.00    +0.146 A 
ATOM     10  C   LIG    1       48.334  60.224  39.553  0.00  0.00    +0.065 A 
ATOM     11  C   LIG    1       47.335  60.188  39.523  0.00  0.00    +0.091 A 
ATOM     12  N   LIG    1       46.983  61.049  39.889  0.00  0.00    -0.334 N 
ATOM     13  C   LIG    1       47.764  61.618  40.145  0.00  0.00    +0.133 A 
BRANCH  12  14
ATOM     14  C   LIG    1       46.019  61.298  39.982  0.00  0.00    +0.149 C 
ATOM     15  C   LIG    1       45.308  60.676  39.652  0.00  0.00    +0.048 C 
BRANCH  14  16
ATOM     16  N   LIG    1       45.766  62.168  40.404  0.00  0.00    -0.311 NA
ATOM     17  H   LIG    1       45.677  62.200  41.017  0.00  0.00    +0.120 HD
ATOM     18  H   LIG    1       45.698  62.675  40.054  0.00  0.00    +0.120 HD
ENDBRANCH  14  16
ENDBRANCH  12  14
ENDBRANCH   8   9
ENDBRANCH   2   8
ENDBRANCH   1   5
BRANCH   1  19
ATOM     19  C   LIG    1       52.262  63.769  37.247  0.00  0.00    +0.313 C 
ATOM     20  O   LIG    1       51.929  64.683  37.477  0.00  0.00    -0.250 OA
BRANCH  19  21
ATOM     21  O   LIG    1       53.245  63.594  37.196  0.00  0.00    -0.480 OA
ATOM     22  H   LIG    1       53.538  63.327  37.672  0.00  0.00    +0.295 HD
ENDBRANCH  19  21
ENDBRANCH   1  19
BRANCH   1  23
ATOM     23  C   LIG    1       51.483  62.692  36.138  0.00  0.00    +0.054 C 
BRANCH  23  24
ATOM     24  C   LIG    1       50.942  63.221  35.484  0.00  0.00    -0.046 A 
ATOM     25  C   LIG    1       49.902  63.161  35.495  0.00  0.00    +0.004 A 
ATOM     26  C   LIG    1       49.348  63.716  34.810  0.00  0.00    +0.009 A 
ATOM     27  C   LIG    1       49.842  64.324  34.122  0.00  0.00    -0.018 A 
ATOM     28  C   LIG    1       49.304  64.854  33.467  0.00  0.00    +0.009 A 
ATOM     29  C   LIG    1       49.764  65.442  32.802  0.00  0.00    +0.016 A 
ATOM     30  C   LIG    1       50.763  65.499  32.792  0.00  0.00    +0.061 A 
ATOM     31  C   LIG    1       51.301  64.969  33.447  0.00  0.00    +0.024 A 
ATOM     32  C   LIG    1       50.840  64.381  34.112  0.00  0.00    -0.017 A 
ATOM     33  C   LIG    1       51.414  63.835  34.788  0.00  0.00    +0.012 A 
BRANCH  30  34
ATOM     34  C   LIG    1       51.223  66.087  32.126  0.00  0.00    +0.266 C 
ATOM     35  N   LIG    1       51.623  66.955  32.419  0.00  0.00    -0.288 N 
ATOM     36  H   LIG    1       51.586  67.130  33.013  0.00  0.00    +0.301 HD
ATOM     37  H   LIG    1       51.909  67.320  32.006  0.00  0.00    +0.301 HD
BRANCH  34  38
ATOM     38  N   LIG    1       51.283  65.806  31.168  0.00  0.00    -0.250 N 
ATOM     39  H   LIG    1       51.479  65.236  31.024  0.00  0.00    +0.288 HD
ATOM     40  H   LIG    1       51.125  66.202  30.719  0.00  0.00    +0.288 HD
ENDBRANCH  34  38
ENDBRANCH  30  34
ENDBRANCH  23  24
ENDBRANCH   1  23
TORSDOF 11
ENDMDL
MODEL 5
REMARK VINA RESULT:    -8.601      3.300      7.186
REMARK INTER + INTRA:          -0.145
REMARK INTER:                 -13.360
REMARK INTRA:                  13.216
REMARK UNBOUND:                13.233
REMARK  Name = 3178
REMARK                            x       y       z     vdW  Elec       q    Type
REMARK                         _______ _______ _______ _____ _____    ______ ____
ROOT
ATOM      1  C   LIG    1       52.109  63.746  35.847  0.00  0.00    +0.132 C 
ENDROOT
BRANCH   1   5
ATOM      2  C   LIG    1       50.838  62.461  38.241  0.00  0.00    +0.129 A 
ATOM      3  C   LIG    1       51.102  63.425  38.272  0.00  0.00    +0.046 A 
ATOM      4  C   LIG    1       51.526  63.853  37.474  0.00  0.00    +0.008 A 
ATOM      5  C   LIG    1       51.686  63.318  36.645  0.00  0.00    -0.033 A 
ATOM      6  C   LIG    1       51.422  62.353  36.614  0.00  0.00    +0.008 A 
ATOM      7  C   LIG    1       50.998  61.925  37.412  0.00  0.00    +0.046 A 
BRANCH   2   8
ATOM      8  O   LIG    1       50.414  62.032  39.040  0.00  0.00    -0.455 OA
BRANCH   8   9
ATOM      9  C   LIG    1       49.431  62.123  39.192  0.00  0.00    +0.146 A 
ATOM     10  C   LIG    1       48.993  62.747  39.841  0.00  0.00    +0.065 A 
ATOM     11  C   LIG    1       48.004  62.616  39.774  0.00  0.00    +0.091 A 
ATOM     12  N   LIG    1       47.830  61.914  39.084  0.00  0.00    -0.334 N 
ATOM     13  C   LIG    1       48.712  61.609  38.725  0.00  0.00    +0.133 A 
BRANCH  12  14
ATOM     14  C   LIG    1       46.932  61.574  38.803  0.00  0.00    +0.149 C 
ATOM     15  C   LIG    1       46.460  61.993  38.027  0.00  0.00    +0.048 C 
BRANCH  14  16
ATOM     16  N   LIG    1       46.507  60.816  39.298  0.00  0.00    -0.311 NA
ATOM     17  H   LIG    1       46.535  60.242  39.067  0.00  0.00    +0.120 HD
ATOM     18  H   LIG    1       46.215  60.921  39.834  0.00  0.00    +0.120 HD
ENDBRANCH  14  16
ENDBRANCH  12  14
ENDBRANCH   8   9
ENDBRANCH   2   8
ENDBRANCH   1   5
BRANCH   1  19
ATOM     19  C   LIG    1       51.685  64.547  35.425  0.00  0.00    +0.313 C 
ATOM     20  O   LIG    1       51.087  64.437  34.631  0.00  0.00    -0.250 OA
BRANCH  19  21
ATOM     21  O   LIG    1       51.858  65.459  35.798  0.00  0.00    -0.480 OA
ATOM     22  H   LIG    1       51.654  65.961  35.496  0.00  0.00    +0.295 HD
ENDBRANCH  19  21
ENDBRANCH   1  19
BRANCH   1  23
ATOM     23  C   LIG    1       52.957  63.374  35.470  0.00  0.00    +0.054 C 
BRANCH  23  24
ATOM     24  C   LIG    1       53.835  63.794  35.700  0.00  0.00    -0.046 A 
ATOM     25  C   LIG    1       54.364  64.330  34.981  0.00  0.00    +0.004 A 
ATOM     26  C   LIG    1       55.277  64.764  35.231  0.00  0.00    +0.009 A 
ATOM     27  C   LIG    1       55.649  64.656  36.199  0.00  0.00    -0.018 A 
ATOM     28  C   LIG    1       56.526  65.075  36.432  0.00  0.00    +0.009 A 
ATOM     29  C   LIG    1       56.895  64.980  37.357  0.00  0.00    +0.016 A 
ATOM     30  C   LIG    1       56.387  64.465  38.048  0.00  0.00    +0.061 A 
ATOM     31  C   LIG    1       55.510  64.046  37.814  0.00  0.00    +0.024 A 
ATOM     32  C   LIG    1       55.141  64.141  36.889  0.00  0.00    -0.017 A 
ATOM     33  C   LIG    1       54.225  63.699  36.661  0.00  0.00    +0.012 A 
BRANCH  30  34
ATOM     34  C   LIG    1       56.756  64.369  38.972  0.00  0.00    +0.266 C 
ATOM     35  N   LIG    1       56.910  63.460  39.358  0.00  0.00    -0.288 N 
ATOM     36  H   LIG    1       56.776  62.955  39.023  0.00  0.00    +0.301 HD
ATOM     37  H   LIG    1       57.139  63.401  39.931  0.00  0.00    +0.301 HD
BRANCH  34  38
ATOM     38  N   LIG    1       56.972  65.184  39.511  0.00  0.00    -0.250 N 
ATOM     39  H   LIG    1       56.933  65.166  40.129  0.00  0.00    +0.288 HD
ATOM     40  H   LIG    1       57.144  65.707  39.226  0.00  0.00    +0.288 HD
ENDBRANCH  34  38
ENDBRANCH  30  34
ENDBRANCH  23  24
ENDBRANCH   1  23
TORSDOF 11
ENDMDL
MODEL 6
REMARK VINA RESULT:    -8.370      6.851      8.714
REMARK INTER + INTRA:           0.215
REMARK INTER:                 -12.986
REMARK INTRA:                  13.202
REMARK UNBOUND:                13.233
REMARK  Name = 3178
REMARK                            x       y       z     vdW  Elec       q    Type
REMARK                         _______ _______ _______ _____ _____    ______ ____
ROOT
ATOM      1  C   LIG    1       54.129  56.047  41.790  0.00  0.00    +0.132 C 
ENDROOT
BRANCH   1   5
ATOM      2  C   LIG    1       56.033  56.622  39.544  0.00  0.00    +0.129 A 
ATOM      3  C   LIG    1       55.576  55.734  39.598  0.00  0.00    +0.046 A 
ATOM      4  C   LIG    1       54.942  55.542  40.346  0.00  0.00    +0.008 A 
ATOM      5  C   LIG    1       54.763  56.239  41.041  0.00  0.00    -0.033 A 
ATOM      6  C   LIG    1       55.220  57.127  40.988  0.00  0.00    +0.008 A 
ATOM      7  C   LIG    1       55.854  57.318  40.239  0.00  0.00    +0.046 A 
BRANCH   2   8
ATOM      8  O   LIG    1       56.668  56.814  38.795  0.00  0.00    -0.455 OA
BRANCH   8   9
ATOM      9  C   LIG    1       56.378  57.387  38.029  0.00  0.00    +0.146 A 
ATOM     10  C   LIG    1       56.182  57.070  37.101  0.00  0.00    +0.065 A 
ATOM     11  C   LIG    1       55.917  57.865  36.554  0.00  0.00    +0.091 A 
ATOM     12  N   LIG    1       55.949  58.672  37.144  0.00  0.00    -0.334 N 
ATOM     13  C   LIG    1       56.234  58.376  38.055  0.00  0.00    +0.133 A 
BRANCH  12  14
ATOM     14  C   LIG    1       55.733  59.609  36.870  0.00  0.00    +0.149 C 
ATOM     15  C   LIG    1       54.794  59.858  36.637  0.00  0.00    +0.048 C 
BRANCH  14  16
ATOM     16  N   LIG    1       56.458  60.297  36.830  0.00  0.00    -0.311 NA
ATOM     17  H   LIG    1       56.463  60.765  37.236  0.00  0.00    +0.120 HD
ATOM     18  H   LIG    1       56.902  60.255  36.400  0.00  0.00    +0.120 HD
ENDBRANCH  14  16
ENDBRANCH  12  14
ENDBRANCH   8   9
ENDBRANCH   2   8
ENDBRANCH   1   5
BRANCH   1  19
ATOM     19  C   LIG    1       54.447  56.084  42.737  0.00  0.00    +0.313 C 
ATOM     20  O   LIG    1       54.623  56.968  43.171  0.00  0.00    -0.250 OA
BRANCH  19  21
ATOM     21  O   LIG    1       54.591  55.238  43.250  0.00  0.00    -0.480 OA
ATOM     22  H   LIG    1       54.271  55.134  43.771  0.00  0.00    +0.295 HD
ENDBRANCH  19  21
ENDBRANCH   1  19
BRANCH   1  23
ATOM     23  C   LIG    1       53.176  55.818  41.592  0.00  0.00    +0.054 C 
BRANCH  23  24
ATOM     24  C   LIG    1       52.470  56.524  41.644  0.00  0.00    -0.046 A 
ATOM     25  C   LIG    1       51.826  56.562  42.462  0.00  0.00    +0.004 A 
ATOM     26  C   LIG    1       51.094  57.302  42.506  0.00  0.00    +0.009 A 
ATOM     27  C   LIG    1       51.016  57.994  41.731  0.00  0.00    -0.018 A 
ATOM     28  C   LIG    1       50.311  58.701  41.780  0.00  0.00    +0.009 A 
ATOM     29  C   LIG    1       50.224  59.372  41.044  0.00  0.00    +0.016 A 
ATOM     30  C   LIG    1       50.842  59.336  40.259  0.00  0.00    +0.061 A 
ATOM     31  C   LIG    1       51.547  58.628  40.210  0.00  0.00    +0.024 A 
ATOM     32  C   LIG    1       51.634  57.957  40.946  0.00  0.00    -0.017 A 
ATOM     33  C   LIG    1       52.373  57.226  40.881  0.00  0.00    +0.012 A 
BRANCH  30  34
ATOM     34  C   LIG    1       50.755  60.007  39.522  0.00  0.00    +0.266 C 
ATOM     35  N   LIG    1       50.199  60.827  39.656  0.00  0.00    -0.288 N 
ATOM     36  H   LIG    1       49.908  60.919  40.196  0.00  0.00    +0.301 HD
ATOM     37  H   LIG    1       50.145  61.243  39.200  0.00  0.00    +0.301 HD
BRANCH  34  38
ATOM     38  N   LIG    1       51.224  59.857  38.652  0.00  0.00    -0.250 N 
ATOM     39  H   LIG    1       51.476  59.305  38.526  0.00  0.00    +0.288 HD
ATOM     40  H   LIG    1       51.263  60.317  38.238  0.00  0.00    +0.288 HD
ENDBRANCH  34  38
ENDBRANCH  30  34
ENDBRANCH  23  24
ENDBRANCH   1  23
TORSDOF 11
ENDMDL
MODEL 7
REMARK VINA RESULT:    -7.903      8.460     10.098
REMARK INTER + INTRA:           0.942
REMARK INTER:                 -12.956
REMARK INTRA:                  13.898
REMARK UNBOUND:                13.233
REMARK  Name = 3178
REMARK                            x       y       z     vdW  Elec       q    Type
REMARK                         _______ _______ _______ _____ _____    ______ ____
ROOT
ATOM      1  C   LIG    1       53.480  55.959  42.242  0.00  0.00    +0.132 C 
ENDROOT
BRANCH   1   5
ATOM      2  C   LIG    1       55.459  54.456  40.561  0.00  0.00    +0.129 A 
ATOM      3  C   LIG    1       54.720  53.966  41.023  0.00  0.00    +0.046 A 
ATOM      4  C   LIG    1       54.061  54.466  41.583  0.00  0.00    +0.008 A 
ATOM      5  C   LIG    1       54.140  55.458  41.682  0.00  0.00    -0.033 A 
ATOM      6  C   LIG    1       54.878  55.950  41.220  0.00  0.00    +0.008 A 
ATOM      7  C   LIG    1       55.538  55.448  40.659  0.00  0.00    +0.046 A 
BRANCH   2   8
ATOM      8  O   LIG    1       56.119  53.956  40.000  0.00  0.00    -0.455 OA
BRANCH   8   9
ATOM      9  C   LIG    1       56.182  54.139  39.019  0.00  0.00    +0.146 A 
ATOM     10  C   LIG    1       55.626  53.712  38.306  0.00  0.00    +0.065 A 
ATOM     11  C   LIG    1       55.912  54.090  37.425  0.00  0.00    +0.091 A 
ATOM     12  N   LIG    1       56.644  54.750  37.594  0.00  0.00    -0.334 N 
ATOM     13  C   LIG    1       56.811  54.780  38.579  0.00  0.00    +0.133 A 
BRANCH  12  14
ATOM     14  C   LIG    1       57.125  55.286  36.900  0.00  0.00    +0.149 C 
ATOM     15  C   LIG    1       56.761  55.341  35.970  0.00  0.00    +0.048 C 
BRANCH  14  16
ATOM     16  N   LIG    1       57.969  55.768  37.136  0.00  0.00    -0.311 NA
ATOM     17  H   LIG    1       57.942  56.329  37.397  0.00  0.00    +0.120 HD
ATOM     18  H   LIG    1       58.518  55.505  37.022  0.00  0.00    +0.120 HD
ENDBRANCH  14  16
ENDBRANCH  12  14
ENDBRANCH   8   9
ENDBRANCH   2   8
ENDBRANCH   1   5
BRANCH   1  19
ATOM     19  C   LIG    1       53.790  56.462  43.049  0.00  0.00    +0.313 C 
ATOM     20  O   LIG    1       54.380  57.263  42.943  0.00  0.00    -0.250 OA
BRANCH  19  21
ATOM     21  O   LIG    1       53.510  56.165  43.962  0.00  0.00    -0.480 OA
ATOM     22  H   LIG    1       53.569  56.550  44.444  0.00  0.00    +0.295 HD
ENDBRANCH  19  21
ENDBRANCH   1  19
BRANCH   1  23
ATOM     23  C   LIG    1       52.511  55.957  41.996  0.00  0.00    +0.054 C 
BRANCH  23  24
ATOM     24  C   LIG    1       52.088  56.782  41.622  0.00  0.00    -0.046 A 
ATOM     25  C   LIG    1       52.469  57.220  40.757  0.00  0.00    +0.004 A 
ATOM     26  C   LIG    1       52.020  58.079  40.375  0.00  0.00    +0.009 A 
ATOM     27  C   LIG    1       51.196  58.488  40.865  0.00  0.00    -0.018 A 
ATOM     28  C   LIG    1       50.770  59.313  40.493  0.00  0.00    +0.009 A 
ATOM     29  C   LIG    1       49.979  59.718  40.951  0.00  0.00    +0.016 A 
ATOM     30  C   LIG    1       49.614  59.297  41.782  0.00  0.00    +0.061 A 
ATOM     31  C   LIG    1       50.039  58.472  42.154  0.00  0.00    +0.024 A 
ATOM     32  C   LIG    1       50.831  58.068  41.695  0.00  0.00    -0.017 A 
ATOM     33  C   LIG    1       51.263  57.209  42.094  0.00  0.00    +0.012 A 
BRANCH  30  34
ATOM     34  C   LIG    1       48.822  59.702  42.241  0.00  0.00    +0.266 C 
ATOM     35  N   LIG    1       48.913  60.063  43.168  0.00  0.00    -0.288 N 
ATOM     36  H   LIG    1       49.460  60.036  43.459  0.00  0.00    +0.301 HD
ATOM     37  H   LIG    1       48.422  60.314  43.453  0.00  0.00    +0.301 HD
BRANCH  34  38
ATOM     38  N   LIG    1       47.940  59.744  41.771  0.00  0.00    -0.250 N 
ATOM     39  H   LIG    1       47.786  59.307  41.360  0.00  0.00    +0.288 HD
ATOM     40  H   LIG    1       47.548  60.209  41.891  0.00  0.00    +0.288 HD
ENDBRANCH  34  38
ENDBRANCH  30  34
ENDBRANCH  23  24
ENDBRANCH   1  23
TORSDOF 11
ENDMDL
MODEL 8
REMARK VINA RESULT:    -7.597      7.854     11.259
REMARK INTER + INTRA:           1.417
REMARK INTER:                 -11.842
REMARK INTRA:                  13.260
REMARK UNBOUND:                13.233
REMARK  Name = 3178
REMARK                            x       y       z     vdW  Elec       q    Type
REMARK                         _______ _______ _______ _____ _____    ______ ____
ROOT
ATOM      1  C   LIG    1       52.241  57.439  39.655  0.00  0.00    +0.132 C 
ENDROOT
BRANCH   1   5
ATOM      2  C   LIG    1       50.405  59.383  41.015  0.00  0.00    +0.129 A 
ATOM      3  C   LIG    1       50.969  59.682  40.246  0.00  0.00    +0.046 A 
ATOM      4  C   LIG    1       51.581  59.034  39.792  0.00  0.00    +0.008 A 
ATOM      5  C   LIG    1       51.629  58.087  40.108  0.00  0.00    -0.033 A 
ATOM      6  C   LIG    1       51.065  57.787  40.878  0.00  0.00    +0.008 A 
ATOM      7  C   LIG    1       50.453  58.435  41.331  0.00  0.00    +0.046 A 
BRANCH   2   8
ATOM      8  O   LIG    1       49.792  60.030  41.469  0.00  0.00    -0.455 OA
BRANCH   8   9
ATOM      9  C   LIG    1       48.902  60.243  41.066  0.00  0.00    +0.146 A 
ATOM     10  C   LIG    1       48.679  61.061  40.536  0.00  0.00    +0.065 A 
ATOM     11  C   LIG    1       47.718  60.999  40.265  0.00  0.00    +0.091 A 
ATOM     12  N   LIG    1       47.348  60.144  40.627  0.00  0.00    -0.334 N 
ATOM     13  C   LIG    1       48.080  59.677  41.123  0.00  0.00    +0.133 A 
BRANCH  12  14
ATOM     14  C   LIG    1       46.411  59.814  40.515  0.00  0.00    +0.149 C 
ATOM     15  C   LIG    1       46.190  59.180  39.774  0.00  0.00    +0.048 C 
BRANCH  14  16
ATOM     16  N   LIG    1       45.695  60.117  41.144  0.00  0.00    -0.311 NA
ATOM     17  H   LIG    1       45.366  59.700  41.463  0.00  0.00    +0.120 HD
ATOM     18  H   LIG    1       45.580  60.722  41.214  0.00  0.00    +0.120 HD
ENDBRANCH  14  16
ENDBRANCH  12  14
ENDBRANCH   8   9
ENDBRANCH   2   8
ENDBRANCH   1   5
BRANCH   1  19
ATOM     19  C   LIG    1       51.873  56.773  39.006  0.00  0.00    +0.313 C 
ATOM     20  O   LIG    1       51.311  56.013  39.335  0.00  0.00    -0.250 OA
BRANCH  19  21
ATOM     21  O   LIG    1       52.065  56.866  38.029  0.00  0.00    -0.480 OA
ATOM     22  H   LIG    1       52.334  57.381  37.814  0.00  0.00    +0.295 HD
ENDBRANCH  19  21
ENDBRANCH   1  19
BRANCH   1  23
ATOM     23  C   LIG    1       53.222  57.458  39.848  0.00  0.00    +0.054 C 
BRANCH  23  24
ATOM     24  C   LIG    1       53.627  56.766  40.446  0.00  0.00    -0.046 A 
ATOM     25  C   LIG    1       53.981  55.871  40.046  0.00  0.00    +0.004 A 
ATOM     26  C   LIG    1       54.401  55.157  40.677  0.00  0.00    +0.009 A 
ATOM     27  C   LIG    1       54.462  55.347  41.700  0.00  0.00    -0.018 A 
ATOM     28  C   LIG    1       54.867  54.657  42.300  0.00  0.00    +0.009 A 
ATOM     29  C   LIG    1       54.932  54.826  43.283  0.00  0.00    +0.016 A 
ATOM     30  C   LIG    1       54.592  55.685  43.667  0.00  0.00    +0.061 A 
ATOM     31  C   LIG    1       54.187  56.375  43.067  0.00  0.00    +0.024 A 
ATOM     32  C   LIG    1       54.122  56.206  42.083  0.00  0.00    -0.017 A 
ATOM     33  C   LIG    1       53.698  56.935  41.471  0.00  0.00    +0.012 A 
BRANCH  30  34
ATOM     34  C   LIG    1       54.657  55.854  44.650  0.00  0.00    +0.266 C 
ATOM     35  N   LIG    1       53.826  55.962  45.195  0.00  0.00    -0.288 N 
ATOM     36  H   LIG    1       53.270  55.924  44.923  0.00  0.00    +0.301 HD
ATOM     37  H   LIG    1       53.866  56.066  45.805  0.00  0.00    +0.301 HD
BRANCH  34  38
ATOM     38  N   LIG    1       55.554  55.916  45.089  0.00  0.00    -0.250 N 
ATOM     39  H   LIG    1       56.061  56.010  44.745  0.00  0.00    +0.288 HD
ATOM     40  H   LIG    1       55.602  55.860  45.704  0.00  0.00    +0.288 HD
ENDBRANCH  34  38
ENDBRANCH  30  34
ENDBRANCH  23  24
ENDBRANCH   1  23
TORSDOF 11
ENDMDL
MODEL 9
REMARK VINA RESULT:    -7.526      6.882      8.580
REMARK INTER + INTRA:           1.527
REMARK INTER:                 -11.941
REMARK INTRA:                  13.468
REMARK UNBOUND:                13.233
REMARK  Name = 3178
REMARK                            x       y       z     vdW  Elec       q    Type
REMARK                         _______ _______ _______ _____ _____    ______ ____
ROOT
ATOM      1  C   LIG    1       51.560  56.488  41.901  0.00  0.00    +0.132 C 
ENDROOT
BRANCH   1   5
ATOM      2  C   LIG    1       54.301  55.535  41.144  0.00  0.00    +0.129 A 
ATOM      3  C   LIG    1       53.507  55.247  40.610  0.00  0.00    +0.046 A 
ATOM      4  C   LIG    1       52.593  55.564  40.862  0.00  0.00    +0.008 A 
ATOM      5  C   LIG    1       52.474  56.170  41.649  0.00  0.00    -0.033 A 
ATOM      6  C   LIG    1       53.268  56.459  42.184  0.00  0.00    +0.008 A 
ATOM      7  C   LIG    1       54.182  56.140  41.931  0.00  0.00    +0.046 A 
BRANCH   2   8
ATOM      8  O   LIG    1       55.216  55.217  40.892  0.00  0.00    -0.455 OA
BRANCH   8   9
ATOM      9  C   LIG    1       55.630  55.515  40.033  0.00  0.00    +0.146 A 
ATOM     10  C   LIG    1       55.959  54.917  39.302  0.00  0.00    +0.065 A 
ATOM     11  C   LIG    1       56.320  55.496  38.569  0.00  0.00    +0.091 A 
ATOM     12  N   LIG    1       56.213  56.450  38.847  0.00  0.00    -0.334 N 
ATOM     13  C   LIG    1       55.786  56.462  39.752  0.00  0.00    +0.133 A 
BRANCH  12  14
ATOM     14  C   LIG    1       56.485  57.252  38.315  0.00  0.00    +0.149 C 
ATOM     15  C   LIG    1       55.841  58.005  38.183  0.00  0.00    +0.048 C 
BRANCH  14  16
ATOM     16  N   LIG    1       57.400  57.300  37.916  0.00  0.00    -0.311 NA
ATOM     17  H   LIG    1       57.475  57.516  37.340  0.00  0.00    +0.120 HD
ATOM     18  H   LIG    1       57.892  57.115  38.244  0.00  0.00    +0.120 HD
ENDBRANCH  14  16
ENDBRANCH  12  14
ENDBRANCH   8   9
ENDBRANCH   2   8
ENDBRANCH   1   5
BRANCH   1  19
ATOM     19  C   LIG    1       50.770  55.888  41.773  0.00  0.00    +0.313 C 
ATOM     20  O   LIG    1       50.376  55.767  40.861  0.00  0.00    -0.250 OA
BRANCH  19  21
ATOM     21  O   LIG    1       50.372  55.410  42.556  0.00  0.00    -0.480 OA
ATOM     22  H   LIG    1       50.666  55.411  43.102  0.00  0.00    +0.295 HD
ENDBRANCH  19  21
ENDBRANCH   1  19
BRANCH   1  23
ATOM     23  C   LIG    1       51.435  57.404  42.281  0.00  0.00    +0.054 C 
BRANCH  23  24
ATOM     24  C   LIG    1       51.034  58.128  41.720  0.00  0.00    -0.046 A 
ATOM     25  C   LIG    1       50.148  58.589  42.015  0.00  0.00    +0.004 A 
ATOM     26  C   LIG    1       49.739  59.343  41.423  0.00  0.00    +0.009 A 
ATOM     27  C   LIG    1       50.222  59.625  40.545  0.00  0.00    -0.018 A 
ATOM     28  C   LIG    1       49.824  60.349  39.981  0.00  0.00    +0.009 A 
ATOM     29  C   LIG    1       50.276  60.630  39.135  0.00  0.00    +0.016 A 
ATOM     30  C   LIG    1       51.127  60.188  38.852  0.00  0.00    +0.061 A 
ATOM     31  C   LIG    1       51.525  59.464  39.415  0.00  0.00    +0.024 A 
ATOM     32  C   LIG    1       51.073  59.182  40.261  0.00  0.00    -0.017 A 
ATOM     33  C   LIG    1       51.500  58.427  40.837  0.00  0.00    +0.012 A 
BRANCH  30  34
ATOM     34  C   LIG    1       51.579  60.469  38.006  0.00  0.00    +0.266 C 
ATOM     35  N   LIG    1       52.574  60.570  37.980  0.00  0.00    -0.288 N 
ATOM     36  H   LIG    1       52.910  60.458  38.489  0.00  0.00    +0.301 HD
ATOM     37  H   LIG    1       52.854  60.744  37.456  0.00  0.00    +0.301 HD
BRANCH  34  38
ATOM     38  N   LIG    1       51.037  60.649  37.185  0.00  0.00    -0.250 N 
ATOM     39  H   LIG    1       50.985  60.214  36.747  0.00  0.00    +0.288 HD
ATOM     40  H   LIG    1       50.754  61.196  37.115  0.00  0.00    +0.288 HD
ENDBRANCH  34  38
ENDBRANCH  30  34
ENDBRANCH  23  24
ENDBRANCH   1  23
TORSDOF 11
ENDMDL
