MODEL 1
REMARK VINA RESULT:    -7.435      0.000      0.000
REMARK INTER + INTRA:          -0.623
REMARK INTER:                 -13.303
REMARK INTRA:                  12.680
REMARK UNBOUND:                12.680
REMARK  Name = 3129
REMARK                            x       y       z     vdW  Elec       q    Type
REMARK                         _______ _______ _______ _____ _____    ______ ____
ROOT
ATOM      1  C   LIG    1       51.833  63.591  34.186  0.00  0.00    +0.120 C 
ENDROOT
BRANCH   1   2
ATOM      2  N   LIG    1       52.804  63.829  34.174  0.00  0.00    -0.308 N 
ATOM      3  H   LIG    1       53.044  64.129  33.687  0.00  0.00    +0.149 HD
ATOM      4  C   LIG    1       53.389  63.583  34.947  0.00  0.00    +0.213 C 
ATOM      5  O   LIG    1       53.003  63.099  35.732  0.00  0.00    -0.276 OA
BRANCH   4   6
ATOM      6  C   LIG    1       54.360  63.820  34.935  0.00  0.00    +0.096 C 
BRANCH   6   7
ATOM      7  C   LIG    1       54.755  64.350  35.685  0.00  0.00    +0.009 C 
BRANCH   7   8
ATOM      8  C   LIG    1       55.739  64.314  35.860  0.00  0.00    +0.000 C 
BRANCH   8   9
ATOM      9  C   LIG    1       56.160  64.966  36.490  0.00  0.00    +0.000 C 
BRANCH   9  10
ATOM     10  C   LIG    1       56.547  64.646  37.355  0.00  0.00    +0.000 C 
BRANCH  10  11
ATOM     11  C   LIG    1       57.176  65.231  37.867  0.00  0.00    -0.000 C 
BRANCH  11  12
ATOM     12  C   LIG    1       57.351  65.050  38.835  0.00  0.00    -0.000 C 
BRANCH  12  13
ATOM     13  C   LIG    1       57.962  65.648  39.353  0.00  0.00    -0.003 C 
ATOM     14  C   LIG    1       58.475  65.286  40.132  0.00  0.00    +0.004 C 
ENDBRANCH  12  13
ENDBRANCH  11  12
ENDBRANCH  10  11
ENDBRANCH   9  10
ENDBRANCH   8   9
ENDBRANCH   7   8
ENDBRANCH   6   7
ENDBRANCH   4   6
ENDBRANCH   1   2
BRANCH   1  15
ATOM     15  C   LIG    1       51.546  62.650  34.004  0.00  0.00    +0.109 C 
BRANCH  15  19
ATOM     16  O   LIG    1       51.357  61.660  31.179  0.00  0.00    -0.377 OA
ATOM     17  C   LIG    1       52.240  61.949  31.549  0.00  0.00    +0.175 C 
ATOM     18  C   LIG    1       52.303  62.279  32.491  0.00  0.00    +0.112 C 
ATOM     19  N   LIG    1       51.483  62.320  33.062  0.00  0.00    -0.296 NA
ATOM     20  C   LIG    1       50.601  62.031  32.692  0.00  0.00    +0.112 C 
ATOM     21  C   LIG    1       50.538  61.701  31.750  0.00  0.00    +0.175 C 
ENDBRANCH  15  19
ENDBRANCH   1  15
BRANCH   1  22
ATOM     22  C   LIG    1       51.149  64.294  34.380  0.00  0.00    +0.166 C 
BRANCH  22  23
ATOM     23  C   LIG    1       51.191  65.176  33.911  0.00  0.00    -0.017 A 
ATOM     24  C   LIG    1       50.806  65.272  32.993  0.00  0.00    +0.006 A 
ATOM     25  C   LIG    1       50.848  66.154  32.523  0.00  0.00    +0.000 A 
ATOM     26  C   LIG    1       51.274  66.939  32.971  0.00  0.00    +0.000 A 
ATOM     27  C   LIG    1       51.659  66.843  33.889  0.00  0.00    +0.000 A 
ATOM     28  C   LIG    1       51.617  65.961  34.359  0.00  0.00    +0.006 A 
ENDBRANCH  22  23
BRANCH  22  29
ATOM     29  O   LIG    1       50.423  64.115  35.044  0.00  0.00    -0.385 OA
ATOM     30  H   LIG    1       49.973  64.532  35.132  0.00  0.00    +0.210 HD
ENDBRANCH  22  29
ENDBRANCH   1  22
TORSDOF 14
ENDMDL
MODEL 2
REMARK VINA RESULT:    -7.397      1.531      2.974
REMARK INTER + INTRA:          -0.555
REMARK INTER:                 -13.366
REMARK INTRA:                  12.811
REMARK UNBOUND:                12.680
REMARK  Name = 3129
REMARK                            x       y       z     vdW  Elec       q    Type
REMARK                         _______ _______ _______ _____ _____    ______ ____
ROOT
ATOM      1  C   LIG    1       51.981  64.305  33.484  0.00  0.00    +0.120 C 
ENDROOT
BRANCH   1   2
ATOM      2  N   LIG    1       52.496  64.584  34.295  0.00  0.00    -0.308 N 
ATOM      3  H   LIG    1       52.204  64.856  34.769  0.00  0.00    +0.149 HD
ATOM      4  C   LIG    1       53.482  64.423  34.340  0.00  0.00    +0.213 C 
ATOM      5  O   LIG    1       53.953  63.984  33.575  0.00  0.00    -0.276 OA
BRANCH   4   6
ATOM      6  C   LIG    1       53.997  64.702  35.151  0.00  0.00    +0.096 C 
BRANCH   6   7
ATOM      7  C   LIG    1       54.956  64.435  35.250  0.00  0.00    +0.009 C 
BRANCH   7   8
ATOM      8  C   LIG    1       55.351  64.319  36.162  0.00  0.00    +0.000 C 
BRANCH   8   9
ATOM      9  C   LIG    1       56.202  64.786  36.401  0.00  0.00    +0.000 C 
BRANCH   9  10
ATOM     10  C   LIG    1       56.753  64.459  37.170  0.00  0.00    +0.000 C 
BRANCH  10  11
ATOM     11  C   LIG    1       57.035  65.095  37.888  0.00  0.00    -0.000 C 
BRANCH  11  12
ATOM     12  C   LIG    1       57.836  64.889  38.451  0.00  0.00    -0.000 C 
BRANCH  12  13
ATOM     13  C   LIG    1       58.275  65.615  38.980  0.00  0.00    -0.003 C 
ATOM     14  C   LIG    1       58.261  65.584  39.979  0.00  0.00    +0.004 C 
ENDBRANCH  12  13
ENDBRANCH  11  12
ENDBRANCH  10  11
ENDBRANCH   9  10
ENDBRANCH   8   9
ENDBRANCH   7   8
ENDBRANCH   6   7
ENDBRANCH   4   6
ENDBRANCH   1   2
BRANCH   1  15
ATOM     15  C   LIG    1       52.045  64.842  32.642  0.00  0.00    +0.109 C 
BRANCH  15  19
ATOM     16  O   LIG    1       50.316  67.265  32.273  0.00  0.00    -0.377 OA
ATOM     17  C   LIG    1       50.183  66.462  31.691  0.00  0.00    +0.175 C 
ATOM     18  C   LIG    1       50.759  65.654  31.814  0.00  0.00    +0.112 C 
ATOM     19  N   LIG    1       51.469  65.649  32.519  0.00  0.00    -0.296 NA
ATOM     20  C   LIG    1       51.602  66.452  33.101  0.00  0.00    +0.112 C 
ATOM     21  C   LIG    1       51.025  67.260  32.978  0.00  0.00    +0.175 C 
ENDBRANCH  15  19
ENDBRANCH   1  15
BRANCH   1  22
ATOM     22  C   LIG    1       51.403  63.491  33.515  0.00  0.00    +0.166 C 
BRANCH  22  23
ATOM     23  C   LIG    1       50.761  63.362  34.271  0.00  0.00    -0.017 A 
ATOM     24  C   LIG    1       49.859  63.793  34.240  0.00  0.00    +0.006 A 
ATOM     25  C   LIG    1       49.217  63.664  34.996  0.00  0.00    +0.000 A 
ATOM     26  C   LIG    1       49.477  63.104  35.783  0.00  0.00    +0.000 A 
ATOM     27  C   LIG    1       50.379  62.673  35.813  0.00  0.00    +0.000 A 
ATOM     28  C   LIG    1       51.021  62.801  35.057  0.00  0.00    +0.006 A 
ENDBRANCH  22  23
BRANCH  22  29
ATOM     29  O   LIG    1       51.466  62.805  32.790  0.00  0.00    -0.385 OA
ATOM     30  H   LIG    1       51.372  62.206  32.921  0.00  0.00    +0.210 HD
ENDBRANCH  22  29
ENDBRANCH   1  22
TORSDOF 14
ENDMDL
MODEL 3
REMARK VINA RESULT:    -7.171      1.461      2.215
REMARK INTER + INTRA:          -0.151
REMARK INTER:                 -12.619
REMARK INTRA:                  12.467
REMARK UNBOUND:                12.680
REMARK  Name = 3129
REMARK                            x       y       z     vdW  Elec       q    Type
REMARK                         _______ _______ _______ _____ _____    ______ ____
ROOT
ATOM      1  C   LIG    1       52.263  63.884  34.184  0.00  0.00    +0.120 C 
ENDROOT
BRANCH   1   2
ATOM      2  N   LIG    1       53.165  63.643  34.542  0.00  0.00    -0.308 N 
ATOM      3  H   LIG    1       53.223  63.178  34.948  0.00  0.00    +0.149 HD
ATOM      4  C   LIG    1       53.973  64.150  34.243  0.00  0.00    +0.213 C 
ATOM      5  O   LIG    1       53.879  64.899  33.587  0.00  0.00    -0.276 OA
BRANCH   4   6
ATOM      6  C   LIG    1       54.875  63.909  34.601  0.00  0.00    +0.096 C 
BRANCH   6   7
ATOM      7  C   LIG    1       55.344  64.525  35.234  0.00  0.00    +0.009 C 
BRANCH   7   8
ATOM      8  C   LIG    1       55.847  64.153  36.014  0.00  0.00    +0.000 C 
BRANCH   8   9
ATOM      9  C   LIG    1       56.015  64.723  36.818  0.00  0.00    +0.000 C 
BRANCH   9  10
ATOM     10  C   LIG    1       56.928  64.753  37.227  0.00  0.00    +0.000 C 
BRANCH  10  11
ATOM     11  C   LIG    1       57.034  64.975  38.196  0.00  0.00    -0.000 C 
BRANCH  11  12
ATOM     12  C   LIG    1       57.943  65.161  38.569  0.00  0.00    -0.000 C 
BRANCH  12  13
ATOM     13  C   LIG    1       58.040  65.728  39.388  0.00  0.00    -0.003 C 
ATOM     14  C   LIG    1       58.455  65.346  40.214  0.00  0.00    +0.004 C 
ENDBRANCH  12  13
ENDBRANCH  11  12
ENDBRANCH  10  11
ENDBRANCH   9  10
ENDBRANCH   8   9
ENDBRANCH   7   8
ENDBRANCH   6   7
ENDBRANCH   4   6
ENDBRANCH   1   2
BRANCH   1  15
ATOM     15  C   LIG    1       52.018  63.649  33.243  0.00  0.00    +0.109 C 
BRANCH  15  19
ATOM     16  O   LIG    1       50.984  60.907  32.602  0.00  0.00    -0.377 OA
ATOM     17  C   LIG    1       50.391  61.705  32.489  0.00  0.00    +0.175 C 
ATOM     18  C   LIG    1       50.736  62.619  32.703  0.00  0.00    +0.112 C 
ATOM     19  N   LIG    1       51.673  62.735  33.030  0.00  0.00    -0.296 NA
ATOM     20  C   LIG    1       52.266  61.938  33.143  0.00  0.00    +0.112 C 
ATOM     21  C   LIG    1       51.921  61.024  32.929  0.00  0.00    +0.175 C 
ENDBRANCH  15  19
ENDBRANCH   1  15
BRANCH   1  22
ATOM     22  C   LIG    1       51.605  64.360  34.768  0.00  0.00    +0.166 C 
BRANCH  22  23
ATOM     23  C   LIG    1       51.507  64.099  35.728  0.00  0.00    -0.017 A 
ATOM     24  C   LIG    1       50.921  63.328  35.979  0.00  0.00    +0.006 A 
ATOM     25  C   LIG    1       50.823  63.067  36.939  0.00  0.00    +0.000 A 
ATOM     26  C   LIG    1       51.311  63.576  37.648  0.00  0.00    +0.000 A 
ATOM     27  C   LIG    1       51.896  64.347  37.397  0.00  0.00    +0.000 A 
ATOM     28  C   LIG    1       51.994  64.608  36.437  0.00  0.00    +0.006 A 
ENDBRANCH  22  23
BRANCH  22  29
ATOM     29  O   LIG    1       51.045  65.098  34.391  0.00  0.00    -0.385 OA
ATOM     30  H   LIG    1       51.293  65.502  33.991  0.00  0.00    +0.210 HD
ENDBRANCH  22  29
ENDBRANCH   1  22
TORSDOF 14
ENDMDL
MODEL 4
REMARK VINA RESULT:    -7.138      1.355      2.130
REMARK INTER + INTRA:          -0.092
REMARK INTER:                 -13.191
REMARK INTRA:                  13.099
REMARK UNBOUND:                12.680
REMARK  Name = 3129
REMARK                            x       y       z     vdW  Elec       q    Type
REMARK                         _______ _______ _______ _____ _____    ______ ____
ROOT
ATOM      1  C   LIG    1       51.924  64.025  33.192  0.00  0.00    +0.120 C 
ENDROOT
BRANCH   1   2
ATOM      2  N   LIG    1       52.663  64.486  33.683  0.00  0.00    -0.308 N 
ATOM      3  H   LIG    1       52.545  64.999  34.011  0.00  0.00    +0.149 HD
ATOM      4  C   LIG    1       53.593  64.120  33.644  0.00  0.00    +0.213 C 
ATOM      5  O   LIG    1       53.784  63.294  33.115  0.00  0.00    -0.276 OA
BRANCH   4   6
ATOM      6  C   LIG    1       54.332  64.581  34.135  0.00  0.00    +0.096 C 
BRANCH   6   7
ATOM      7  C   LIG    1       54.679  64.198  34.991  0.00  0.00    +0.009 C 
BRANCH   7   8
ATOM      8  C   LIG    1       55.427  64.652  35.476  0.00  0.00    +0.000 C 
BRANCH   8   9
ATOM      9  C   LIG    1       55.687  64.347  36.392  0.00  0.00    +0.000 C 
BRANCH   9  10
ATOM     10  C   LIG    1       56.538  64.672  36.804  0.00  0.00    +0.000 C 
BRANCH  10  11
ATOM     11  C   LIG    1       56.579  64.860  37.785  0.00  0.00    -0.000 C 
BRANCH  11  12
ATOM     12  C   LIG    1       57.456  65.069  38.218  0.00  0.00    -0.000 C 
BRANCH  12  13
ATOM     13  C   LIG    1       57.484  65.359  39.175  0.00  0.00    -0.003 C 
ATOM     14  C   LIG    1       58.321  65.758  39.552  0.00  0.00    +0.004 C 
ENDBRANCH  12  13
ENDBRANCH  11  12
ENDBRANCH  10  11
ENDBRANCH   9  10
ENDBRANCH   8   9
ENDBRANCH   7   8
ENDBRANCH   6   7
ENDBRANCH   4   6
ENDBRANCH   1   2
BRANCH   1  15
ATOM     15  C   LIG    1       51.534  63.179  33.555  0.00  0.00    +0.109 C 
BRANCH  15  19
ATOM     16  O   LIG    1       49.419  63.292  35.679  0.00  0.00    -0.377 OA
ATOM     17  C   LIG    1       50.364  63.531  35.901  0.00  0.00    +0.175 C 
ATOM     18  C   LIG    1       51.069  63.493  35.193  0.00  0.00    +0.112 C 
ATOM     19  N   LIG    1       50.829  63.217  34.263  0.00  0.00    -0.296 NA
ATOM     20  C   LIG    1       49.884  62.978  34.040  0.00  0.00    +0.112 C 
ATOM     21  C   LIG    1       49.179  63.016  34.749  0.00  0.00    +0.175 C 
ENDBRANCH  15  19
ENDBRANCH   1  15
BRANCH   1  22
ATOM     22  C   LIG    1       51.574  64.410  32.338  0.00  0.00    +0.166 C 
BRANCH  22  23
ATOM     23  C   LIG    1       51.135  65.308  32.337  0.00  0.00    -0.017 A 
ATOM     24  C   LIG    1       50.210  65.412  31.970  0.00  0.00    +0.006 A 
ATOM     25  C   LIG    1       49.771  66.310  31.969  0.00  0.00    +0.000 A 
ATOM     26  C   LIG    1       50.255  67.105  32.337  0.00  0.00    +0.000 A 
ATOM     27  C   LIG    1       51.179  67.001  32.705  0.00  0.00    +0.000 A 
ATOM     28  C   LIG    1       51.619  66.103  32.705  0.00  0.00    +0.006 A 
ENDBRANCH  22  23
BRANCH  22  29
ATOM     29  O   LIG    1       51.665  63.898  31.484  0.00  0.00    -0.385 OA
ATOM     30  H   LIG    1       51.628  63.279  31.488  0.00  0.00    +0.210 HD
ENDBRANCH  22  29
ENDBRANCH   1  22
TORSDOF 14
ENDMDL
