MODEL 1
REMARK VINA RESULT:    -6.315      0.000      0.000
REMARK INTER + INTRA:         -12.055
REMARK INTER:                 -12.406
REMARK INTRA:                   0.351
REMARK UNBOUND:                 0.351
REMARK  Name = 3207
REMARK                            x       y       z     vdW  Elec       q    Type
REMARK                         _______ _______ _______ _____ _____    ______ ____
ROOT
ATOM      1  C   LIG    1       54.816  58.561  38.613  0.00  0.00    -0.027 C 
ATOM      2  C   LIG    1       55.405  59.045  37.966  0.00  0.00    -0.031 C 
ENDROOT
BRANCH   1   3
ATOM      3  C   LIG    1       55.185  57.808  39.158  0.00  0.00    +0.053 C 
BRANCH   3   5
ATOM      4  C   LIG    1       55.117  57.027  40.702  0.00  0.00    -0.031 C 
ATOM      5  C   LIG    1       54.651  57.431  39.915  0.00  0.00    -0.027 C 
BRANCH   4   6
ATOM      6  C   LIG    1       54.584  56.650  41.460  0.00  0.00    +0.027 C 
BRANCH   6   7
ATOM      7  C   LIG    1       54.894  56.776  42.402  0.00  0.00    +0.015 C 
BRANCH   7   8
ATOM      8  C   LIG    1       54.320  56.474  43.162  0.00  0.00    +0.121 C 
BRANCH   8   9
ATOM      9  C   LIG    1       54.620  56.622  44.105  0.00  0.00    +0.305 C 
ATOM     10  O   LIG    1       54.236  56.069  44.844  0.00  0.00    -0.251 OA
BRANCH   9  11
ATOM     11  O   LIG    1       55.303  57.324  44.308  0.00  0.00    -0.481 OA
ATOM     12  H   LIG    1       55.251  57.889  44.058  0.00  0.00    +0.295 HD
ENDBRANCH   9  11
ENDBRANCH   8   9
ENDBRANCH   7   8
ENDBRANCH   6   7
ENDBRANCH   4   6
ENDBRANCH   3   5
ENDBRANCH   1   3
BRANCH   2  13
ATOM     13  C   LIG    1       55.036  59.798  37.421  0.00  0.00    +0.027 C 
BRANCH  13  14
ATOM     14  C   LIG    1       55.656  60.448  36.982  0.00  0.00    +0.004 C 
BRANCH  14  15
ATOM     15  C   LIG    1       55.317  61.340  36.685  0.00  0.00    +0.000 C 
BRANCH  15  16
ATOM     16  C   LIG    1       55.954  62.101  36.560  0.00  0.00    +0.000 C 
BRANCH  16  17
ATOM     17  C   LIG    1       55.703  63.018  36.869  0.00  0.00    +0.000 C 
BRANCH  17  18
ATOM     18  C   LIG    1       56.390  63.745  36.885  0.00  0.00    +0.000 C 
BRANCH  18  19
ATOM     19  C   LIG    1       56.506  64.305  37.706  0.00  0.00    -0.000 C 
BRANCH  19  20
ATOM     20  C   LIG    1       57.303  64.903  37.794  0.00  0.00    -0.000 C 
BRANCH  20  21
ATOM     21  C   LIG    1       57.436  65.438  38.628  0.00  0.00    -0.000 C 
BRANCH  21  22
ATOM     22  C   LIG    1       58.354  65.547  39.011  0.00  0.00    -0.003 C 
ATOM     23  C   LIG    1       58.482  65.574  40.003  0.00  0.00    +0.004 C 
ENDBRANCH  21  22
ENDBRANCH  20  21
ENDBRANCH  19  20
ENDBRANCH  18  19
ENDBRANCH  17  18
ENDBRANCH  16  17
ENDBRANCH  15  16
ENDBRANCH  14  15
ENDBRANCH  13  14
ENDBRANCH   2  13
TORSDOF 17
ENDMDL
MODEL 2
REMARK VINA RESULT:    -6.282      6.311      9.268
REMARK INTER + INTRA:         -11.992
REMARK INTER:                 -12.398
REMARK INTRA:                   0.407
REMARK UNBOUND:                 0.351
REMARK  Name = 3207
REMARK                            x       y       z     vdW  Elec       q    Type
REMARK                         _______ _______ _______ _____ _____    ______ ____
ROOT
ATOM      1  C   LIG    1       55.114  64.581  35.044  0.00  0.00    -0.027 C 
ATOM      2  C   LIG    1       54.191  64.231  34.882  0.00  0.00    -0.031 C 
ENDROOT
BRANCH   1   3
ATOM      3  C   LIG    1       55.640  64.260  35.832  0.00  0.00    +0.053 C 
BRANCH   3   5
ATOM      4  C   LIG    1       56.555  64.619  37.257  0.00  0.00    -0.031 C 
ATOM      5  C   LIG    1       56.148  64.913  36.393  0.00  0.00    -0.027 C 
BRANCH   4   6
ATOM      6  C   LIG    1       57.064  65.273  37.818  0.00  0.00    +0.027 C 
BRANCH   6   7
ATOM      7  C   LIG    1       57.396  65.003  38.722  0.00  0.00    +0.015 C 
BRANCH   7   8
ATOM      8  C   LIG    1       58.378  64.996  38.912  0.00  0.00    +0.121 C 
BRANCH   8   9
ATOM      9  C   LIG    1       58.726  64.536  39.729  0.00  0.00    +0.305 C 
ATOM     10  O   LIG    1       58.710  65.005  40.612  0.00  0.00    -0.251 OA
BRANCH   9  11
ATOM     11  O   LIG    1       59.089  63.606  39.663  0.00  0.00    -0.481 OA
ATOM     12  H   LIG    1       59.156  63.263  40.175  0.00  0.00    +0.295 HD
ENDBRANCH   9  11
ENDBRANCH   8   9
ENDBRANCH   7   8
ENDBRANCH   6   7
ENDBRANCH   4   6
ENDBRANCH   3   5
ENDBRANCH   1   3
BRANCH   2  13
ATOM     13  C   LIG    1       53.666  64.552  34.094  0.00  0.00    +0.027 C 
BRANCH  13  14
ATOM     14  C   LIG    1       52.677  64.404  34.059  0.00  0.00    +0.004 C 
BRANCH  14  15
ATOM     15  C   LIG    1       52.102  65.002  33.502  0.00  0.00    +0.000 C 
BRANCH  15  16
ATOM     16  C   LIG    1       51.185  65.249  33.816  0.00  0.00    +0.000 C 
BRANCH  16  17
ATOM     17  C   LIG    1       50.463  65.441  33.151  0.00  0.00    +0.000 C 
BRANCH  17  18
ATOM     18  C   LIG    1       49.595  64.948  33.199  0.00  0.00    +0.000 C 
BRANCH  18  19
ATOM     19  C   LIG    1       48.914  65.063  32.476  0.00  0.00    -0.000 C 
BRANCH  19  20
ATOM     20  C   LIG    1       47.941  64.961  32.685  0.00  0.00    -0.000 C 
BRANCH  20  21
ATOM     21  C   LIG    1       47.258  65.122  31.973  0.00  0.00    -0.000 C 
BRANCH  21  22
ATOM     22  C   LIG    1       46.298  65.251  32.221  0.00  0.00    -0.003 C 
ATOM     23  C   LIG    1       45.575  64.942  31.602  0.00  0.00    +0.004 C 
ENDBRANCH  21  22
ENDBRANCH  20  21
ENDBRANCH  19  20
ENDBRANCH  18  19
ENDBRANCH  17  18
ENDBRANCH  16  17
ENDBRANCH  15  16
ENDBRANCH  14  15
ENDBRANCH  13  14
ENDBRANCH   2  13
TORSDOF 17
ENDMDL
MODEL 3
REMARK VINA RESULT:    -6.036      7.733     10.055
REMARK INTER + INTRA:         -11.509
REMARK INTER:                 -11.749
REMARK INTRA:                   0.241
REMARK UNBOUND:                 0.351
REMARK  Name = 3207
REMARK                            x       y       z     vdW  Elec       q    Type
REMARK                         _______ _______ _______ _____ _____    ______ ____
ROOT
ATOM      1  C   LIG    1       51.192  65.015  33.950  0.00  0.00    -0.027 C 
ATOM      2  C   LIG    1       51.970  64.429  34.177  0.00  0.00    -0.031 C 
ENDROOT
BRANCH   1   3
ATOM      3  C   LIG    1       50.274  64.623  33.880  0.00  0.00    +0.053 C 
BRANCH   3   5
ATOM      4  C   LIG    1       48.680  64.715  33.210  0.00  0.00    -0.031 C 
ATOM      5  C   LIG    1       49.656  64.927  33.155  0.00  0.00    -0.027 C 
BRANCH   4   6
ATOM      6  C   LIG    1       48.061  65.018  32.485  0.00  0.00    +0.027 C 
BRANCH   6   7
ATOM      7  C   LIG    1       47.075  64.882  32.581  0.00  0.00    +0.015 C 
BRANCH   7   8
ATOM      8  C   LIG    1       46.490  64.880  31.770  0.00  0.00    +0.121 C 
BRANCH   8   9
ATOM      9  C   LIG    1       45.505  64.735  31.864  0.00  0.00    +0.305 C 
ATOM     10  O   LIG    1       45.086  64.726  32.772  0.00  0.00    -0.251 OA
BRANCH   9  11
ATOM     11  O   LIG    1       44.939  64.600  31.051  0.00  0.00    -0.481 OA
ATOM     12  H   LIG    1       44.321  64.620  31.096  0.00  0.00    +0.295 HD
ENDBRANCH   9  11
ENDBRANCH   8   9
ENDBRANCH   7   8
ENDBRANCH   6   7
ENDBRANCH   4   6
ENDBRANCH   3   5
ENDBRANCH   1   3
BRANCH   2  13
ATOM     13  C   LIG    1       52.887  64.820  34.247  0.00  0.00    +0.027 C 
BRANCH  13  14
ATOM     14  C   LIG    1       53.681  64.220  34.341  0.00  0.00    +0.004 C 
BRANCH  14  15
ATOM     15  C   LIG    1       54.553  64.590  34.662  0.00  0.00    +0.000 C 
BRANCH  15  16
ATOM     16  C   LIG    1       54.968  64.237  35.500  0.00  0.00    +0.000 C 
BRANCH  16  17
ATOM     17  C   LIG    1       55.723  64.732  35.931  0.00  0.00    +0.000 C 
BRANCH  17  18
ATOM     18  C   LIG    1       55.997  64.509  36.867  0.00  0.00    +0.000 C 
BRANCH  18  19
ATOM     19  C   LIG    1       56.772  64.981  37.286  0.00  0.00    -0.000 C 
BRANCH  19  20
ATOM     20  C   LIG    1       56.906  64.942  38.276  0.00  0.00    -0.000 C 
BRANCH  20  21
ATOM     21  C   LIG    1       57.710  65.367  38.690  0.00  0.00    -0.000 C 
BRANCH  21  22
ATOM     22  C   LIG    1       58.220  64.886  39.403  0.00  0.00    -0.003 C 
ATOM     23  C   LIG    1       58.462  65.358  40.250  0.00  0.00    +0.004 C 
ENDBRANCH  21  22
ENDBRANCH  20  21
ENDBRANCH  19  20
ENDBRANCH  18  19
ENDBRANCH  17  18
ENDBRANCH  16  17
ENDBRANCH  15  16
ENDBRANCH  14  15
ENDBRANCH  13  14
ENDBRANCH   2  13
TORSDOF 17
ENDMDL
MODEL 4
REMARK VINA RESULT:    -5.987      4.397      4.823
REMARK INTER + INTRA:         -11.412
REMARK INTER:                 -11.687
REMARK INTRA:                   0.275
REMARK UNBOUND:                 0.351
REMARK  Name = 3207
REMARK                            x       y       z     vdW  Elec       q    Type
REMARK                         _______ _______ _______ _____ _____    ______ ____
ROOT
ATOM      1  C   LIG    1       50.668  58.981  40.969  0.00  0.00    -0.027 C 
ATOM      2  C   LIG    1       50.692  59.474  40.100  0.00  0.00    -0.031 C 
ENDROOT
BRANCH   1   3
ATOM      3  C   LIG    1       51.072  58.069  41.038  0.00  0.00    +0.053 C 
BRANCH   3   5
ATOM      4  C   LIG    1       52.148  57.074  41.962  0.00  0.00    -0.031 C 
ATOM      5  C   LIG    1       51.393  57.729  41.922  0.00  0.00    -0.027 C 
BRANCH   4   6
ATOM      6  C   LIG    1       52.469  56.735  42.846  0.00  0.00    +0.027 C 
BRANCH   6   7
ATOM      7  C   LIG    1       53.450  56.642  43.019  0.00  0.00    +0.015 C 
BRANCH   7   8
ATOM      8  C   LIG    1       53.788  56.580  43.958  0.00  0.00    +0.121 C 
BRANCH   8   9
ATOM      9  C   LIG    1       54.770  56.504  44.132  0.00  0.00    +0.305 C 
ATOM     10  O   LIG    1       55.206  55.604  44.149  0.00  0.00    -0.251 OA
BRANCH   9  11
ATOM     11  O   LIG    1       55.315  57.327  44.288  0.00  0.00    -0.481 OA
ATOM     12  H   LIG    1       55.224  57.831  43.939  0.00  0.00    +0.295 HD
ENDBRANCH   9  11
ENDBRANCH   8   9
ENDBRANCH   7   8
ENDBRANCH   6   7
ENDBRANCH   4   6
ENDBRANCH   3   5
ENDBRANCH   1   3
BRANCH   2  13
ATOM     13  C   LIG    1       50.287  60.386  40.031  0.00  0.00    +0.027 C 
BRANCH  13  14
ATOM     14  C   LIG    1       50.187  60.823  39.137  0.00  0.00    +0.004 C 
BRANCH  14  15
ATOM     15  C   LIG    1       50.515  61.757  38.998  0.00  0.00    +0.000 C 
BRANCH  15  16
ATOM     16  C   LIG    1       50.889  62.029  38.111  0.00  0.00    +0.000 C 
BRANCH  16  17
ATOM     17  C   LIG    1       50.900  62.993  37.847  0.00  0.00    +0.000 C 
BRANCH  17  18
ATOM     18  C   LIG    1       51.593  63.329  37.210  0.00  0.00    +0.000 C 
BRANCH  18  19
ATOM     19  C   LIG    1       51.494  64.233  36.794  0.00  0.00    -0.000 C 
BRANCH  19  20
ATOM     20  C   LIG    1       51.871  64.410  35.885  0.00  0.00    -0.000 C 
BRANCH  20  21
ATOM     21  C   LIG    1       52.047  65.349  35.590  0.00  0.00    -0.000 C 
BRANCH  21  22
ATOM     22  C   LIG    1       52.175  65.553  34.619  0.00  0.00    -0.003 C 
ATOM     23  C   LIG    1       51.637  66.276  34.186  0.00  0.00    +0.004 C 
ENDBRANCH  21  22
ENDBRANCH  20  21
ENDBRANCH  19  20
ENDBRANCH  18  19
ENDBRANCH  17  18
ENDBRANCH  16  17
ENDBRANCH  15  16
ENDBRANCH  14  15
ENDBRANCH  13  14
ENDBRANCH   2  13
TORSDOF 17
ENDMDL
MODEL 5
REMARK VINA RESULT:    -5.461      7.119     10.542
REMARK INTER + INTRA:         -10.378
REMARK INTER:                 -10.632
REMARK INTRA:                   0.255
REMARK UNBOUND:                 0.351
REMARK  Name = 3207
REMARK                            x       y       z     vdW  Elec       q    Type
REMARK                         _______ _______ _______ _____ _____    ______ ____
ROOT
ATOM      1  C   LIG    1       50.299  62.917  36.896  0.00  0.00    -0.027 C 
ATOM      2  C   LIG    1       49.886  62.253  37.520  0.00  0.00    -0.031 C 
ENDROOT
BRANCH   1   3
ATOM      3  C   LIG    1       49.776  63.263  36.117  0.00  0.00    +0.053 C 
BRANCH   3   5
ATOM      4  C   LIG    1       49.948  64.086  34.603  0.00  0.00    -0.031 C 
ATOM      5  C   LIG    1       50.211  63.345  35.220  0.00  0.00    -0.027 C 
BRANCH   4   6
ATOM      6  C   LIG    1       50.383  64.168  33.706  0.00  0.00    +0.027 C 
BRANCH   6   7
ATOM      7  C   LIG    1       50.485  65.067  33.280  0.00  0.00    +0.015 C 
BRANCH   7   8
ATOM      8  C   LIG    1       51.191  65.214  32.587  0.00  0.00    +0.121 C 
BRANCH   8   9
ATOM      9  C   LIG    1       51.126  65.996  31.966  0.00  0.00    +0.305 C 
ATOM     10  O   LIG    1       50.984  66.915  32.333  0.00  0.00    -0.251 OA
BRANCH   9  11
ATOM     11  O   LIG    1       51.204  65.858  30.979  0.00  0.00    -0.481 OA
ATOM     12  H   LIG    1       51.691  65.553  30.746  0.00  0.00    +0.295 HD
ENDBRANCH   9  11
ENDBRANCH   8   9
ENDBRANCH   7   8
ENDBRANCH   6   7
ENDBRANCH   4   6
ENDBRANCH   3   5
ENDBRANCH   1   3
BRANCH   2  13
ATOM     13  C   LIG    1       50.409  61.907  38.299  0.00  0.00    +0.027 C 
BRANCH  13  14
ATOM     14  C   LIG    1       50.486  60.922  38.451  0.00  0.00    +0.004 C 
BRANCH  14  15
ATOM     15  C   LIG    1       50.460  60.556  39.381  0.00  0.00    +0.000 C 
BRANCH  15  16
ATOM     16  C   LIG    1       50.947  59.710  39.600  0.00  0.00    +0.000 C 
BRANCH  16  17
ATOM     17  C   LIG    1       50.705  59.192  40.420  0.00  0.00    +0.000 C 
BRANCH  17  18
ATOM     18  C   LIG    1       51.379  58.590  40.848  0.00  0.00    +0.000 C 
BRANCH  18  19
ATOM     19  C   LIG    1       51.082  57.749  41.300  0.00  0.00    -0.000 C 
BRANCH  19  20
ATOM     20  C   LIG    1       51.487  57.481  42.175  0.00  0.00    -0.000 C 
BRANCH  20  21
ATOM     21  C   LIG    1       52.322  56.931  42.191  0.00  0.00    -0.000 C 
BRANCH  21  22
ATOM     22  C   LIG    1       52.660  56.561  43.057  0.00  0.00    -0.003 C 
ATOM     23  C   LIG    1       53.632  56.354  43.167  0.00  0.00    +0.004 C 
ENDBRANCH  21  22
ENDBRANCH  20  21
ENDBRANCH  19  20
ENDBRANCH  18  19
ENDBRANCH  17  18
ENDBRANCH  16  17
ENDBRANCH  15  16
ENDBRANCH  14  15
ENDBRANCH  13  14
ENDBRANCH   2  13
TORSDOF 17
ENDMDL
MODEL 6
REMARK VINA RESULT:    -4.974      6.716      8.907
REMARK INTER + INTRA:          -9.422
REMARK INTER:                  -9.503
REMARK INTRA:                   0.081
REMARK UNBOUND:                 0.351
REMARK  Name = 3207
REMARK                            x       y       z     vdW  Elec       q    Type
REMARK                         _______ _______ _______ _____ _____    ______ ____
ROOT
ATOM      1  C   LIG    1       50.200  62.191  37.875  0.00  0.00    -0.027 C 
ATOM      2  C   LIG    1       49.219  62.384  37.901  0.00  0.00    -0.031 C 
ENDROOT
BRANCH   1   3
ATOM      3  C   LIG    1       50.847  62.831  38.290  0.00  0.00    +0.053 C 
BRANCH   3   5
ATOM      4  C   LIG    1       51.993  63.422  37.134  0.00  0.00    -0.031 C 
ATOM      5  C   LIG    1       51.221  63.584  37.749  0.00  0.00    -0.027 C 
BRANCH   4   6
ATOM      6  C   LIG    1       52.367  64.175  36.593  0.00  0.00    +0.027 C 
BRANCH   6   7
ATOM      7  C   LIG    1       53.318  64.144  36.284  0.00  0.00    +0.015 C 
BRANCH   7   8
ATOM      8  C   LIG    1       53.537  64.318  35.324  0.00  0.00    +0.121 C 
BRANCH   8   9
ATOM      9  C   LIG    1       54.491  64.419  35.040  0.00  0.00    +0.305 C 
ATOM     10  O   LIG    1       55.181  63.772  35.365  0.00  0.00    -0.251 OA
BRANCH   9  11
ATOM     11  O   LIG    1       54.754  65.166  34.430  0.00  0.00    -0.481 OA
ATOM     12  H   LIG    1       54.455  65.249  33.893  0.00  0.00    +0.295 HD
ENDBRANCH   9  11
ENDBRANCH   8   9
ENDBRANCH   7   8
ENDBRANCH   6   7
ENDBRANCH   4   6
ENDBRANCH   3   5
ENDBRANCH   1   3
BRANCH   2  13
ATOM     13  C   LIG    1       48.572  61.745  37.486  0.00  0.00    +0.027 C 
BRANCH  13  14
ATOM     14  C   LIG    1       47.937  62.062  36.782  0.00  0.00    +0.004 C 
BRANCH  14  15
ATOM     15  C   LIG    1       48.212  62.051  35.820  0.00  0.00    +0.000 C 
BRANCH  15  16
ATOM     16  C   LIG    1       47.840  62.729  35.187  0.00  0.00    +0.000 C 
BRANCH  16  17
ATOM     17  C   LIG    1       48.399  63.064  34.428  0.00  0.00    +0.000 C 
BRANCH  17  18
ATOM     18  C   LIG    1       49.057  63.801  34.579  0.00  0.00    +0.000 C 
BRANCH  18  19
ATOM     19  C   LIG    1       49.708  64.046  33.861  0.00  0.00    -0.000 C 
BRANCH  19  20
ATOM     20  C   LIG    1       50.066  64.978  33.806  0.00  0.00    -0.000 C 
BRANCH  20  21
ATOM     21  C   LIG    1       50.737  65.216  33.105  0.00  0.00    -0.000 C 
BRANCH  21  22
ATOM     22  C   LIG    1       50.823  66.163  32.795  0.00  0.00    -0.003 C 
ATOM     23  C   LIG    1       51.616  66.708  33.068  0.00  0.00    +0.004 C 
ENDBRANCH  21  22
ENDBRANCH  20  21
ENDBRANCH  19  20
ENDBRANCH  18  19
ENDBRANCH  17  18
ENDBRANCH  16  17
ENDBRANCH  15  16
ENDBRANCH  14  15
ENDBRANCH  13  14
ENDBRANCH   2  13
TORSDOF 17
ENDMDL
MODEL 7
REMARK VINA RESULT:    -4.912      7.857     10.261
REMARK INTER + INTRA:          -9.299
REMARK INTER:                  -8.928
REMARK INTRA:                  -0.371
REMARK UNBOUND:                 0.351
REMARK  Name = 3207
REMARK                            x       y       z     vdW  Elec       q    Type
REMARK                         _______ _______ _______ _____ _____    ______ ____
ROOT
ATOM      1  C   LIG    1       51.576  63.242  37.040  0.00  0.00    -0.027 C 
ATOM      2  C   LIG    1       50.783  63.171  37.646  0.00  0.00    -0.031 C 
ENDROOT
BRANCH   1   3
ATOM      3  C   LIG    1       52.093  64.096  36.992  0.00  0.00    +0.053 C 
BRANCH   3   5
ATOM      4  C   LIG    1       52.022  65.221  35.677  0.00  0.00    -0.031 C 
ATOM      5  C   LIG    1       52.438  64.423  36.112  0.00  0.00    -0.027 C 
BRANCH   4   6
ATOM      6  C   LIG    1       52.367  65.548  34.798  0.00  0.00    +0.027 C 
BRANCH   6   7
ATOM      7  C   LIG    1       51.830  66.198  34.260  0.00  0.00    +0.015 C 
BRANCH   7   8
ATOM      8  C   LIG    1       51.926  66.224  33.265  0.00  0.00    +0.121 C 
BRANCH   8   9
ATOM      9  C   LIG    1       51.311  66.792  32.718  0.00  0.00    +0.305 C 
ATOM     10  O   LIG    1       50.942  67.640  33.099  0.00  0.00    -0.251 OA
BRANCH   9  11
ATOM     11  O   LIG    1       51.065  66.512  31.791  0.00  0.00    -0.481 OA
ATOM     12  H   LIG    1       51.378  66.056  31.511  0.00  0.00    +0.295 HD
ENDBRANCH   9  11
ENDBRANCH   8   9
ENDBRANCH   7   8
ENDBRANCH   6   7
ENDBRANCH   4   6
ENDBRANCH   3   5
ENDBRANCH   1   3
BRANCH   2  13
ATOM     13  C   LIG    1       50.265  62.316  37.693  0.00  0.00    +0.027 C 
BRANCH  13  14
ATOM     14  C   LIG    1       49.751  61.998  36.897  0.00  0.00    +0.004 C 
BRANCH  14  15
ATOM     15  C   LIG    1       48.815  62.318  36.746  0.00  0.00    +0.000 C 
BRANCH  15  16
ATOM     16  C   LIG    1       48.404  62.250  35.837  0.00  0.00    +0.000 C 
BRANCH  16  17
ATOM     17  C   LIG    1       48.357  63.056  35.248  0.00  0.00    +0.000 C 
BRANCH  17  18
ATOM     18  C   LIG    1       48.531  62.969  34.267  0.00  0.00    +0.000 C 
BRANCH  18  19
ATOM     19  C   LIG    1       49.207  63.559  33.825  0.00  0.00    -0.000 C 
BRANCH  19  20
ATOM     20  C   LIG    1       49.677  63.248  32.998  0.00  0.00    -0.000 C 
BRANCH  20  21
ATOM     21  C   LIG    1       50.596  62.858  33.062  0.00  0.00    -0.000 C 
BRANCH  21  22
ATOM     22  C   LIG    1       51.192  62.848  32.259  0.00  0.00    -0.003 C 
ATOM     23  C   LIG    1       52.160  62.620  32.359  0.00  0.00    +0.004 C 
ENDBRANCH  21  22
ENDBRANCH  20  21
ENDBRANCH  19  20
ENDBRANCH  18  19
ENDBRANCH  17  18
ENDBRANCH  16  17
ENDBRANCH  15  16
ENDBRANCH  14  15
ENDBRANCH  13  14
ENDBRANCH   2  13
TORSDOF 17
ENDMDL
MODEL 8
REMARK VINA RESULT:    -4.709      6.488      9.218
REMARK INTER + INTRA:          -8.901
REMARK INTER:                  -8.462
REMARK INTRA:                  -0.439
REMARK UNBOUND:                 0.351
REMARK  Name = 3207
REMARK                            x       y       z     vdW  Elec       q    Type
REMARK                         _______ _______ _______ _____ _____    ______ ____
ROOT
ATOM      1  C   LIG    1       50.150  62.652  36.914  0.00  0.00    -0.027 C 
ATOM      2  C   LIG    1       49.789  61.891  37.452  0.00  0.00    -0.031 C 
ENDROOT
BRANCH   1   3
ATOM      3  C   LIG    1       49.620  63.019  36.149  0.00  0.00    +0.053 C 
BRANCH   3   5
ATOM      4  C   LIG    1       50.126  64.105  34.898  0.00  0.00    -0.031 C 
ATOM      5  C   LIG    1       50.061  63.177  35.266  0.00  0.00    -0.027 C 
BRANCH   4   6
ATOM      6  C   LIG    1       50.567  64.263  34.014  0.00  0.00    +0.027 C 
BRANCH   6   7
ATOM      7  C   LIG    1       50.640  65.192  33.651  0.00  0.00    +0.015 C 
BRANCH   7   8
ATOM      8  C   LIG    1       51.445  65.459  33.121  0.00  0.00    +0.121 C 
BRANCH   8   9
ATOM      9  C   LIG    1       51.391  66.228  32.484  0.00  0.00    +0.305 C 
ATOM     10  O   LIG    1       51.182  67.145  32.822  0.00  0.00    -0.251 OA
BRANCH   9  11
ATOM     11  O   LIG    1       51.546  66.079  31.507  0.00  0.00    -0.481 OA
ATOM     12  H   LIG    1       52.062  65.793  31.315  0.00  0.00    +0.295 HD
ENDBRANCH   9  11
ENDBRANCH   8   9
ENDBRANCH   7   8
ENDBRANCH   6   7
ENDBRANCH   4   6
ENDBRANCH   3   5
ENDBRANCH   1   3
BRANCH   2  13
ATOM     13  C   LIG    1       50.319  61.523  38.217  0.00  0.00    +0.027 C 
BRANCH  13  14
ATOM     14  C   LIG    1       50.695  60.599  38.165  0.00  0.00    +0.004 C 
BRANCH  14  15
ATOM     15  C   LIG    1       51.655  60.436  38.396  0.00  0.00    +0.000 C 
BRANCH  15  16
ATOM     16  C   LIG    1       52.215  59.846  37.815  0.00  0.00    +0.000 C 
BRANCH  16  17
ATOM     17  C   LIG    1       53.125  60.145  37.528  0.00  0.00    +0.000 C 
BRANCH  17  18
ATOM     18  C   LIG    1       53.301  60.359  36.567  0.00  0.00    +0.000 C 
BRANCH  18  19
ATOM     19  C   LIG    1       53.801  61.189  36.322  0.00  0.00    -0.000 C 
BRANCH  19  20
ATOM     20  C   LIG    1       53.526  61.722  35.522  0.00  0.00    -0.000 C 
BRANCH  20  21
ATOM     21  C   LIG    1       53.935  62.618  35.353  0.00  0.00    -0.000 C 
BRANCH  21  22
ATOM     22  C   LIG    1       53.682  63.399  35.925  0.00  0.00    -0.003 C 
ATOM     23  C   LIG    1       53.941  64.325  35.650  0.00  0.00    +0.004 C 
ENDBRANCH  21  22
ENDBRANCH  20  21
ENDBRANCH  19  20
ENDBRANCH  18  19
ENDBRANCH  17  18
ENDBRANCH  16  17
ENDBRANCH  15  16
ENDBRANCH  14  15
ENDBRANCH  13  14
ENDBRANCH   2  13
TORSDOF 17
ENDMDL
MODEL 9
REMARK VINA RESULT:    -4.267      7.919     10.566
REMARK INTER + INTRA:          -8.031
REMARK INTER:                  -8.771
REMARK INTRA:                   0.739
REMARK UNBOUND:                 0.351
REMARK  Name = 3207
REMARK                            x       y       z     vdW  Elec       q    Type
REMARK                         _______ _______ _______ _____ _____    ______ ____
ROOT
ATOM      1  C   LIG    1       50.556  62.041  37.610  0.00  0.00    -0.027 C 
ATOM      2  C   LIG    1       50.605  61.945  38.604  0.00  0.00    -0.031 C 
ENDROOT
BRANCH   1   3
ATOM      3  C   LIG    1       50.474  62.949  37.199  0.00  0.00    +0.053 C 
BRANCH   3   5
ATOM      4  C   LIG    1       50.494  63.824  35.705  0.00  0.00    -0.031 C 
ATOM      5  C   LIG    1       50.184  63.043  36.247  0.00  0.00    -0.027 C 
BRANCH   4   6
ATOM      6  C   LIG    1       50.204  63.918  34.752  0.00  0.00    +0.027 C 
BRANCH   6   7
ATOM      7  C   LIG    1       50.812  64.349  34.085  0.00  0.00    +0.015 C 
BRANCH   7   8
ATOM      8  C   LIG    1       50.601  65.260  33.732  0.00  0.00    +0.121 C 
BRANCH   8   9
ATOM      9  C   LIG    1       51.178  65.669  33.025  0.00  0.00    +0.305 C 
ATOM     10  O   LIG    1       51.146  65.318  32.089  0.00  0.00    -0.251 OA
BRANCH   9  11
ATOM     11  O   LIG    1       51.786  66.429  33.254  0.00  0.00    -0.481 OA
ATOM     12  H   LIG    1       51.724  66.723  33.796  0.00  0.00    +0.295 HD
ENDBRANCH   9  11
ENDBRANCH   8   9
ENDBRANCH   7   8
ENDBRANCH   6   7
ENDBRANCH   4   6
ENDBRANCH   3   5
ENDBRANCH   1   3
BRANCH   2  13
ATOM     13  C   LIG    1       50.688  61.037  39.015  0.00  0.00    +0.027 C 
BRANCH  13  14
ATOM     14  C   LIG    1       49.873  60.565  39.352  0.00  0.00    +0.004 C 
BRANCH  14  15
ATOM     15  C   LIG    1       49.617  60.638  40.316  0.00  0.00    +0.000 C 
BRANCH  15  16
ATOM     16  C   LIG    1       48.737  60.280  40.628  0.00  0.00    +0.000 C 
BRANCH  16  17
ATOM     17  C   LIG    1       47.971  60.904  40.784  0.00  0.00    +0.000 C 
BRANCH  17  18
ATOM     18  C   LIG    1       47.142  60.826  40.231  0.00  0.00    +0.000 C 
BRANCH  18  19
ATOM     19  C   LIG    1       46.538  61.616  40.120  0.00  0.00    -0.000 C 
BRANCH  19  20
ATOM     20  C   LIG    1       46.602  62.182  39.298  0.00  0.00    -0.000 C 
BRANCH  20  21
ATOM     21  C   LIG    1       46.394  61.789  38.403  0.00  0.00    -0.000 C 
BRANCH  21  22
ATOM     22  C   LIG    1       46.595  62.306  37.571  0.00  0.00    -0.003 C 
ATOM     23  C   LIG    1       46.711  61.828  36.700  0.00  0.00    +0.004 C 
ENDBRANCH  21  22
ENDBRANCH  20  21
ENDBRANCH  19  20
ENDBRANCH  18  19
ENDBRANCH  17  18
ENDBRANCH  16  17
ENDBRANCH  15  16
ENDBRANCH  14  15
ENDBRANCH  13  14
ENDBRANCH   2  13
TORSDOF 17
ENDMDL
