MODEL 1
REMARK VINA RESULT:    -9.562      0.000      0.000
REMARK INTER + INTRA:           2.099
REMARK INTER:                 -12.636
REMARK INTRA:                  14.735
REMARK UNBOUND:                14.735
REMARK  Name = 3184
REMARK                            x       y       z     vdW  Elec       q    Type
REMARK                         _______ _______ _______ _____ _____    ______ ____
ROOT
ATOM      1  C   LIG    1       54.249  63.828  35.356  0.00  0.00    +0.070 C 
ATOM      2  C   LIG    1       54.220  63.709  36.349  0.00  0.00    +0.062 C 
ATOM      3  C   LIG    1       54.977  64.036  36.914  0.00  0.00    +0.132 C 
ATOM      4  N   LIG    1       55.763  64.483  36.487  0.00  0.00    +0.236 N 
ATOM      5  H   LIG    1       56.316  64.760  36.536  0.00  0.00    +0.203 HD
ATOM      6  C   LIG    1       55.792  64.602  35.494  0.00  0.00    +0.132 C 
ATOM      7  C   LIG    1       55.035  64.274  34.929  0.00  0.00    +0.062 C 
ENDROOT
BRANCH   1   8
ATOM      8  C   LIG    1       53.492  63.500  34.791  0.00  0.00    +0.167 C 
ATOM      9  O   LIG    1       53.400  62.523  34.596  0.00  0.00    -0.292 OA
BRANCH   8  13
ATOM     10  C   LIG    1       51.498  65.446  33.680  0.00  0.00    +0.048 A 
ATOM     11  C   LIG    1       52.241  65.108  33.103  0.00  0.00    +0.025 A 
ATOM     12  C   LIG    1       52.906  64.459  33.473  0.00  0.00    +0.013 A 
ATOM     13  C   LIG    1       52.827  64.149  34.420  0.00  0.00    +0.018 A 
ATOM     14  C   LIG    1       52.084  64.487  34.998  0.00  0.00    +0.013 A 
ATOM     15  C   LIG    1       51.419  65.136  34.627  0.00  0.00    +0.025 A 
BRANCH  10  16
ATOM     16  N   LIG    1       50.833  66.095  33.309  0.00  0.00    -0.221 N 
ATOM     17  H   LIG    1       50.814  66.676  33.525  0.00  0.00    +0.173 HD
BRANCH  16  18
ATOM     18  S   LIG    1       50.199  65.806  32.592  0.00  0.00    +0.040 S 
ATOM     19  C   LIG    1       49.566  65.518  31.874  0.00  0.00    +0.218 C 
ATOM     20  O   LIG    1       50.757  66.278  31.909  0.00  0.00    -0.155 OA
ATOM     21  O   LIG    1       49.641  65.334  33.274  0.00  0.00    -0.155 OA
ENDBRANCH  16  18
ENDBRANCH  10  16
ENDBRANCH   8  13
ENDBRANCH   1   8
BRANCH   4  22
ATOM     22  C   LIG    1       56.183  64.604  37.386  0.00  0.00    +0.142 C 
BRANCH  22  23
ATOM     23  C   LIG    1       57.026  65.134  37.477  0.00  0.00    +0.157 C 
BRANCH  23  24
ATOM     24  C   LIG    1       57.581  65.052  38.305  0.00  0.00    +0.188 A 
ATOM     25  C   LIG    1       57.456  65.700  39.057  0.00  0.00    +0.073 A 
ATOM     26  C   LIG    1       58.012  65.618  39.884  0.00  0.00    +0.012 A 
ATOM     27  C   LIG    1       58.692  64.889  39.960  0.00  0.00    +0.073 A 
ATOM     28  C   LIG    1       58.817  64.242  39.208  0.00  0.00    +0.179 A 
ATOM     29  C   LIG    1       59.497  63.513  39.284  0.00  0.00    +0.122 C 
ATOM     30  N   LIG    1       58.262  64.323  38.380  0.00  0.00    -0.212 N 
ATOM     31  H   LIG    1       58.339  63.922  37.914  0.00  0.00    +0.453 HD
ENDBRANCH  23  24
ENDBRANCH  22  23
ENDBRANCH   4  22
TORSDOF 7
ENDMDL
MODEL 2
REMARK VINA RESULT:    -9.329      3.079      7.693
REMARK INTER + INTRA:           2.407
REMARK INTER:                 -12.549
REMARK INTRA:                  14.956
REMARK UNBOUND:                14.735
REMARK  Name = 3184
REMARK                            x       y       z     vdW  Elec       q    Type
REMARK                         _______ _______ _______ _____ _____    ______ ____
ROOT
ATOM      1  C   LIG    1       54.813  63.937  35.713  0.00  0.00    +0.070 C 
ATOM      2  C   LIG    1       54.812  64.461  34.861  0.00  0.00    +0.062 C 
ATOM      3  C   LIG    1       53.957  64.841  34.508  0.00  0.00    +0.132 C 
ATOM      4  N   LIG    1       53.103  64.696  35.007  0.00  0.00    +0.236 N 
ATOM      5  H   LIG    1       52.490  64.780  35.059  0.00  0.00    +0.203 HD
ATOM      6  C   LIG    1       53.103  64.172  35.858  0.00  0.00    +0.132 C 
ATOM      7  C   LIG    1       53.958  63.792  36.211  0.00  0.00    +0.062 C 
ENDROOT
BRANCH   1   8
ATOM      8  C   LIG    1       55.668  63.557  36.066  0.00  0.00    +0.167 C 
ATOM      9  O   LIG    1       56.100  62.784  35.602  0.00  0.00    -0.292 OA
BRANCH   8  13
ATOM     10  C   LIG    1       56.936  64.739  38.514  0.00  0.00    +0.048 A 
ATOM     11  C   LIG    1       56.545  63.819  38.548  0.00  0.00    +0.025 A 
ATOM     12  C   LIG    1       56.122  63.425  37.732  0.00  0.00    +0.013 A 
ATOM     13  C   LIG    1       56.091  63.951  36.882  0.00  0.00    +0.018 A 
ATOM     14  C   LIG    1       56.482  64.871  36.848  0.00  0.00    +0.013 A 
ATOM     15  C   LIG    1       56.904  65.265  37.664  0.00  0.00    +0.025 A 
BRANCH  10  16
ATOM     16  N   LIG    1       57.358  65.133  39.331  0.00  0.00    -0.221 N 
ATOM     17  H   LIG    1       57.013  65.252  39.831  0.00  0.00    +0.173 HD
BRANCH  16  18
ATOM     18  S   LIG    1       58.338  65.334  39.339  0.00  0.00    +0.040 S 
ATOM     19  C   LIG    1       59.318  65.535  39.347  0.00  0.00    +0.218 C 
ATOM     20  O   LIG    1       58.531  64.383  39.582  0.00  0.00    -0.155 OA
ATOM     21  O   LIG    1       58.145  66.284  39.095  0.00  0.00    -0.155 OA
ENDBRANCH  16  18
ENDBRANCH  10  16
ENDBRANCH   8  13
ENDBRANCH   1   8
BRANCH   4  22
ATOM     22  C   LIG    1       52.609  65.218  34.311  0.00  0.00    +0.142 C 
BRANCH  22  23
ATOM     23  C   LIG    1       51.646  65.451  34.451  0.00  0.00    +0.157 C 
BRANCH  23  24
ATOM     24  C   LIG    1       51.070  65.685  33.668  0.00  0.00    +0.188 A 
ATOM     25  C   LIG    1       51.256  66.513  33.139  0.00  0.00    +0.073 A 
ATOM     26  C   LIG    1       50.679  66.747  32.356  0.00  0.00    +0.012 A 
ATOM     27  C   LIG    1       49.917  66.152  32.101  0.00  0.00    +0.073 A 
ATOM     28  C   LIG    1       49.731  65.323  32.629  0.00  0.00    +0.179 A 
ATOM     29  C   LIG    1       48.969  64.728  32.375  0.00  0.00    +0.122 C 
ATOM     30  N   LIG    1       50.308  65.090  33.413  0.00  0.00    -0.212 N 
ATOM     31  H   LIG    1       50.192  64.576  33.740  0.00  0.00    +0.453 HD
ENDBRANCH  23  24
ENDBRANCH  22  23
ENDBRANCH   4  22
TORSDOF 7
ENDMDL
MODEL 3
REMARK VINA RESULT:    -9.270      2.393      2.868
REMARK INTER + INTRA:           2.485
REMARK INTER:                 -12.229
REMARK INTRA:                  14.714
REMARK UNBOUND:                14.735
REMARK  Name = 3184
REMARK                            x       y       z     vdW  Elec       q    Type
REMARK                         _______ _______ _______ _____ _____    ______ ____
ROOT
ATOM      1  C   LIG    1       53.620  64.378  34.735  0.00  0.00    +0.070 C 
ATOM      2  C   LIG    1       54.582  64.584  34.554  0.00  0.00    +0.062 C 
ATOM      3  C   LIG    1       55.243  64.582  35.304  0.00  0.00    +0.132 C 
ATOM      4  N   LIG    1       54.943  64.375  36.235  0.00  0.00    +0.236 N 
ATOM      5  H   LIG    1       55.073  64.301  36.837  0.00  0.00    +0.203 HD
ATOM      6  C   LIG    1       53.982  64.170  36.416  0.00  0.00    +0.132 C 
ATOM      7  C   LIG    1       53.320  64.171  35.666  0.00  0.00    +0.062 C 
ENDROOT
BRANCH   1   8
ATOM      8  C   LIG    1       52.959  64.379  33.985  0.00  0.00    +0.167 C 
ATOM      9  O   LIG    1       52.529  65.236  33.699  0.00  0.00    -0.292 OA
BRANCH   8  13
ATOM     10  C   LIG    1       52.263  61.814  32.594  0.00  0.00    +0.048 A 
ATOM     11  C   LIG    1       53.033  62.365  32.272  0.00  0.00    +0.025 A 
ATOM     12  C   LIG    1       53.265  63.220  32.735  0.00  0.00    +0.013 A 
ATOM     13  C   LIG    1       52.727  63.524  33.521  0.00  0.00    +0.018 A 
ATOM     14  C   LIG    1       51.957  62.973  33.844  0.00  0.00    +0.013 A 
ATOM     15  C   LIG    1       51.725  62.118  33.380  0.00  0.00    +0.025 A 
BRANCH  10  16
ATOM     16  N   LIG    1       52.032  60.959  32.130  0.00  0.00    -0.221 N 
ATOM     17  H   LIG    1       52.395  60.461  32.198  0.00  0.00    +0.173 HD
BRANCH  16  18
ATOM     18  S   LIG    1       51.214  60.907  31.557  0.00  0.00    +0.040 S 
ATOM     19  C   LIG    1       50.396  60.855  30.983  0.00  0.00    +0.218 C 
ATOM     20  O   LIG    1       51.719  61.318  30.798  0.00  0.00    -0.155 OA
ATOM     21  O   LIG    1       50.709  60.495  32.315  0.00  0.00    -0.155 OA
ENDBRANCH  16  18
ENDBRANCH  10  16
ENDBRANCH   8  13
ENDBRANCH   1   8
BRANCH   4  22
ATOM     22  C   LIG    1       55.881  64.493  36.563  0.00  0.00    +0.142 C 
BRANCH  22  23
ATOM     23  C   LIG    1       56.118  64.236  37.500  0.00  0.00    +0.157 C 
BRANCH  23  24
ATOM     24  C   LIG    1       57.041  64.407  37.846  0.00  0.00    +0.188 A 
ATOM     25  C   LIG    1       57.784  63.778  37.621  0.00  0.00    +0.073 A 
ATOM     26  C   LIG    1       58.707  63.950  37.968  0.00  0.00    +0.012 A 
ATOM     27  C   LIG    1       58.885  64.750  38.540  0.00  0.00    +0.073 A 
ATOM     28  C   LIG    1       58.141  65.379  38.765  0.00  0.00    +0.179 A 
ATOM     29  C   LIG    1       58.319  66.180  39.337  0.00  0.00    +0.122 C 
ATOM     30  N   LIG    1       57.219  65.208  38.418  0.00  0.00    -0.212 N 
ATOM     31  H   LIG    1       56.758  65.598  38.558  0.00  0.00    +0.453 HD
ENDBRANCH  23  24
ENDBRANCH  22  23
ENDBRANCH   4  22
TORSDOF 7
ENDMDL
