MODEL 1
REMARK VINA RESULT:    -6.654      0.000      0.000
REMARK INTER + INTRA:         -12.115
REMARK INTER:                 -12.682
REMARK INTRA:                   0.568
REMARK UNBOUND:                 0.568
REMARK  Name = 3210
REMARK                            x       y       z     vdW  Elec       q    Type
REMARK                         _______ _______ _______ _____ _____    ______ ____
ROOT
ATOM      1  C   LIG    1       53.257  64.524  34.755  0.00  0.00    +0.004 C 
ENDROOT
BRANCH   1   2
ATOM      2  C   LIG    1       54.175  64.885  34.923  0.00  0.00    +0.000 C 
BRANCH   2   3
ATOM      3  C   LIG    1       54.866  64.309  35.359  0.00  0.00    +0.000 C 
BRANCH   3   4
ATOM      4  C   LIG    1       55.696  64.722  35.735  0.00  0.00    +0.000 C 
BRANCH   4   5
ATOM      5  C   LIG    1       56.077  64.384  36.596  0.00  0.00    +0.000 C 
BRANCH   5   6
ATOM      6  C   LIG    1       56.623  64.990  37.173  0.00  0.00    +0.001 C 
BRANCH   6   7
ATOM      7  C   LIG    1       56.969  64.664  38.053  0.00  0.00    +0.011 C 
BRANCH   7   8
ATOM      8  C   LIG    1       57.693  65.168  38.524  0.00  0.00    +0.120 C 
BRANCH   8   9
ATOM      9  C   LIG    1       58.056  64.829  39.392  0.00  0.00    +0.305 C 
ATOM     10  O   LIG    1       58.279  65.471  40.125  0.00  0.00    -0.251 OA
BRANCH   9  11
ATOM     11  O   LIG    1       58.195  63.848  39.526  0.00  0.00    -0.481 OA
ATOM     12  H   LIG    1       58.623  63.547  39.194  0.00  0.00    +0.295 HD
ENDBRANCH   9  11
ENDBRANCH   8   9
ENDBRANCH   7   8
ENDBRANCH   6   7
ENDBRANCH   5   6
ENDBRANCH   4   5
ENDBRANCH   3   4
ENDBRANCH   2   3
ENDBRANCH   1   2
BRANCH   1  13
ATOM     13  C   LIG    1       52.522  65.140  34.473  0.00  0.00    +0.027 C 
BRANCH  13  14
ATOM     14  C   LIG    1       51.568  64.854  34.565  0.00  0.00    -0.031 C 
ATOM     15  C   LIG    1       50.941  64.948  33.791  0.00  0.00    -0.027 C 
BRANCH  15  16
ATOM     16  C   LIG    1       49.987  64.662  33.883  0.00  0.00    +0.053 C 
BRANCH  16  17
ATOM     17  C   LIG    1       49.329  64.876  33.161  0.00  0.00    -0.027 C 
ATOM     18  C   LIG    1       48.542  64.278  33.009  0.00  0.00    -0.027 C 
BRANCH  18  19
ATOM     19  C   LIG    1       47.884  64.492  32.287  0.00  0.00    +0.053 C 
BRANCH  19  20
ATOM     20  C   LIG    1       47.365  65.346  32.320  0.00  0.00    -0.027 C 
ATOM     21  C   LIG    1       46.458  65.396  31.902  0.00  0.00    -0.031 C 
BRANCH  21  22
ATOM     22  C   LIG    1       45.939  66.251  31.935  0.00  0.00    +0.023 C 
ATOM     23  C   LIG    1       44.959  66.248  31.737  0.00  0.00    +0.008 C 
ENDBRANCH  21  22
ENDBRANCH  19  20
ENDBRANCH  18  19
ENDBRANCH  16  17
ENDBRANCH  15  16
ENDBRANCH  13  14
ENDBRANCH   1  13
TORSDOF 16
ENDMDL
MODEL 2
REMARK VINA RESULT:    -6.442      4.602     10.063
REMARK INTER + INTRA:         -11.712
REMARK INTER:                 -11.996
REMARK INTRA:                   0.284
REMARK UNBOUND:                 0.568
REMARK  Name = 3210
REMARK                            x       y       z     vdW  Elec       q    Type
REMARK                         _______ _______ _______ _____ _____    ______ ____
ROOT
ATOM      1  C   LIG    1       51.989  64.515  34.072  0.00  0.00    +0.004 C 
ENDROOT
BRANCH   1   2
ATOM      2  C   LIG    1       51.335  64.599  33.320  0.00  0.00    +0.000 C 
BRANCH   2   3
ATOM      3  C   LIG    1       50.391  64.871  33.507  0.00  0.00    +0.000 C 
BRANCH   3   4
ATOM      4  C   LIG    1       49.635  64.382  33.073  0.00  0.00    +0.000 C 
BRANCH   4   5
ATOM      5  C   LIG    1       48.699  64.720  33.171  0.00  0.00    +0.000 C 
BRANCH   5   6
ATOM      6  C   LIG    1       48.183  65.007  32.363  0.00  0.00    +0.001 C 
BRANCH   6   7
ATOM      7  C   LIG    1       47.190  64.897  32.339  0.00  0.00    +0.011 C 
BRANCH   7   8
ATOM      8  C   LIG    1       46.609  65.661  32.059  0.00  0.00    +0.120 C 
BRANCH   8   9
ATOM      9  C   LIG    1       45.614  65.580  32.115  0.00  0.00    +0.305 C 
ATOM     10  O   LIG    1       45.103  65.165  31.362  0.00  0.00    -0.251 OA
BRANCH   9  11
ATOM     11  O   LIG    1       45.129  65.913  32.923  0.00  0.00    -0.481 OA
ATOM     12  H   LIG    1       44.532  65.771  33.007  0.00  0.00    +0.295 HD
ENDBRANCH   9  11
ENDBRANCH   8   9
ENDBRANCH   7   8
ENDBRANCH   6   7
ENDBRANCH   5   6
ENDBRANCH   4   5
ENDBRANCH   3   4
ENDBRANCH   2   3
ENDBRANCH   1   2
BRANCH   1  13
ATOM     13  C   LIG    1       52.906  64.903  33.982  0.00  0.00    +0.027 C 
BRANCH  13  14
ATOM     14  C   LIG    1       53.703  64.380  34.284  0.00  0.00    -0.031 C 
ATOM     15  C   LIG    1       54.364  64.792  34.910  0.00  0.00    -0.027 C 
BRANCH  15  16
ATOM     16  C   LIG    1       55.161  64.268  35.212  0.00  0.00    +0.053 C 
BRANCH  16  17
ATOM     17  C   LIG    1       55.382  64.210  36.186  0.00  0.00    -0.027 C 
ATOM     18  C   LIG    1       56.176  64.698  36.548  0.00  0.00    -0.027 C 
BRANCH  18  19
ATOM     19  C   LIG    1       56.397  64.640  37.522  0.00  0.00    +0.053 C 
BRANCH  19  20
ATOM     20  C   LIG    1       57.219  65.086  37.875  0.00  0.00    -0.027 C 
ATOM     21  C   LIG    1       57.337  65.209  38.861  0.00  0.00    -0.031 C 
BRANCH  21  22
ATOM     22  C   LIG    1       58.159  65.655  39.214  0.00  0.00    +0.023 C 
ATOM     23  C   LIG    1       58.507  65.416  40.121  0.00  0.00    +0.008 C 
ENDBRANCH  21  22
ENDBRANCH  19  20
ENDBRANCH  18  19
ENDBRANCH  16  17
ENDBRANCH  15  16
ENDBRANCH  13  14
ENDBRANCH   1  13
TORSDOF 16
ENDMDL
MODEL 3
REMARK VINA RESULT:    -6.076      4.240      9.280
REMARK INTER + INTRA:         -11.015
REMARK INTER:                 -11.468
REMARK INTRA:                   0.453
REMARK UNBOUND:                 0.568
REMARK  Name = 3210
REMARK                            x       y       z     vdW  Elec       q    Type
REMARK                         _______ _______ _______ _____ _____    ______ ____
ROOT
ATOM      1  C   LIG    1       51.361  64.730  34.716  0.00  0.00    +0.004 C 
ENDROOT
BRANCH   1   2
ATOM      2  C   LIG    1       50.746  64.000  34.419  0.00  0.00    +0.000 C 
BRANCH   2   3
ATOM      3  C   LIG    1       49.788  64.006  34.706  0.00  0.00    +0.000 C 
BRANCH   3   4
ATOM      4  C   LIG    1       49.333  63.148  34.945  0.00  0.00    +0.000 C 
BRANCH   4   5
ATOM      5  C   LIG    1       48.350  63.137  35.128  0.00  0.00    +0.000 C 
BRANCH   5   6
ATOM      6  C   LIG    1       47.916  62.308  35.478  0.00  0.00    +0.001 C 
BRANCH   6   7
ATOM      7  C   LIG    1       47.599  62.270  36.426  0.00  0.00    +0.011 C 
BRANCH   7   8
ATOM      8  C   LIG    1       46.682  61.930  36.634  0.00  0.00    +0.120 C 
BRANCH   8   9
ATOM      9  C   LIG    1       46.373  61.872  37.583  0.00  0.00    +0.305 C 
ATOM     10  O   LIG    1       46.971  62.180  38.323  0.00  0.00    -0.251 OA
BRANCH   9  11
ATOM     11  O   LIG    1       45.466  61.508  37.792  0.00  0.00    -0.481 OA
ATOM     12  H   LIG    1       45.390  60.899  37.881  0.00  0.00    +0.295 HD
ENDBRANCH   9  11
ENDBRANCH   8   9
ENDBRANCH   7   8
ENDBRANCH   6   7
ENDBRANCH   5   6
ENDBRANCH   4   5
ENDBRANCH   3   4
ENDBRANCH   2   3
ENDBRANCH   1   2
BRANCH   1  13
ATOM     13  C   LIG    1       52.281  64.798  34.329  0.00  0.00    +0.027 C 
BRANCH  13  14
ATOM     14  C   LIG    1       53.039  64.302  34.752  0.00  0.00    -0.031 C 
ATOM     15  C   LIG    1       53.940  64.730  34.820  0.00  0.00    -0.027 C 
BRANCH  15  16
ATOM     16  C   LIG    1       54.699  64.234  35.243  0.00  0.00    +0.053 C 
BRANCH  16  17
ATOM     17  C   LIG    1       55.439  64.737  35.688  0.00  0.00    -0.027 C 
ATOM     18  C   LIG    1       55.939  64.323  36.449  0.00  0.00    -0.027 C 
BRANCH  18  19
ATOM     19  C   LIG    1       56.679  64.827  36.893  0.00  0.00    +0.053 C 
BRANCH  19  20
ATOM     20  C   LIG    1       56.812  64.752  37.882  0.00  0.00    -0.027 C 
ATOM     21  C   LIG    1       57.455  65.360  38.347  0.00  0.00    -0.031 C 
BRANCH  21  22
ATOM     22  C   LIG    1       57.588  65.284  39.336  0.00  0.00    +0.023 C 
ATOM     23  C   LIG    1       58.425  65.635  39.756  0.00  0.00    +0.008 C 
ENDBRANCH  21  22
ENDBRANCH  19  20
ENDBRANCH  18  19
ENDBRANCH  16  17
ENDBRANCH  15  16
ENDBRANCH  13  14
ENDBRANCH   1  13
TORSDOF 16
ENDMDL
MODEL 4
REMARK VINA RESULT:    -5.923      5.318      9.117
REMARK INTER + INTRA:         -10.722
REMARK INTER:                 -11.424
REMARK INTRA:                   0.702
REMARK UNBOUND:                 0.568
REMARK  Name = 3210
REMARK                            x       y       z     vdW  Elec       q    Type
REMARK                         _______ _______ _______ _____ _____    ______ ____
ROOT
ATOM      1  C   LIG    1       52.122  62.417  37.003  0.00  0.00    +0.004 C 
ENDROOT
BRANCH   1   2
ATOM      2  C   LIG    1       51.133  62.485  37.130  0.00  0.00    +0.000 C 
BRANCH   2   3
ATOM      3  C   LIG    1       50.680  61.936  37.833  0.00  0.00    +0.000 C 
BRANCH   3   4
ATOM      4  C   LIG    1       50.150  62.385  38.553  0.00  0.00    +0.000 C 
BRANCH   4   5
ATOM      5  C   LIG    1       49.502  61.855  39.100  0.00  0.00    +0.000 C 
BRANCH   5   6
ATOM      6  C   LIG    1       49.787  61.472  39.979  0.00  0.00    +0.001 C 
BRANCH   6   7
ATOM      7  C   LIG    1       49.099  61.163  40.636  0.00  0.00    +0.011 C 
BRANCH   7   8
ATOM      8  C   LIG    1       49.212  60.284  41.101  0.00  0.00    +0.120 C 
BRANCH   8   9
ATOM      9  C   LIG    1       48.630  60.053  41.880  0.00  0.00    +0.305 C 
ATOM     10  O   LIG    1       49.043  59.789  42.752  0.00  0.00    -0.251 OA
BRANCH   9  11
ATOM     11  O   LIG    1       47.635  60.087  41.789  0.00  0.00    -0.481 OA
ATOM     12  H   LIG    1       47.328  60.608  41.928  0.00  0.00    +0.295 HD
ENDBRANCH   9  11
ENDBRANCH   8   9
ENDBRANCH   7   8
ENDBRANCH   6   7
ENDBRANCH   5   6
ENDBRANCH   4   5
ENDBRANCH   3   4
ENDBRANCH   2   3
ENDBRANCH   1   2
BRANCH   1  13
ATOM     13  C   LIG    1       52.518  62.530  36.092  0.00  0.00    +0.027 C 
BRANCH  13  14
ATOM     14  C   LIG    1       53.072  63.336  35.884  0.00  0.00    -0.031 C 
ATOM     15  C   LIG    1       54.028  63.375  36.175  0.00  0.00    -0.027 C 
BRANCH  15  16
ATOM     16  C   LIG    1       54.582  64.181  35.967  0.00  0.00    +0.053 C 
BRANCH  16  17
ATOM     17  C   LIG    1       55.556  64.191  36.193  0.00  0.00    -0.027 C 
ATOM     18  C   LIG    1       55.866  64.592  37.054  0.00  0.00    -0.027 C 
BRANCH  18  19
ATOM     19  C   LIG    1       56.840  64.601  37.280  0.00  0.00    +0.053 C 
BRANCH  19  20
ATOM     20  C   LIG    1       57.198  65.278  37.923  0.00  0.00    -0.027 C 
ATOM     21  C   LIG    1       57.757  64.984  38.698  0.00  0.00    -0.031 C 
BRANCH  21  22
ATOM     22  C   LIG    1       58.115  65.661  39.341  0.00  0.00    +0.023 C 
ATOM     23  C   LIG    1       58.535  65.363  40.198  0.00  0.00    +0.008 C 
ENDBRANCH  21  22
ENDBRANCH  19  20
ENDBRANCH  18  19
ENDBRANCH  16  17
ENDBRANCH  15  16
ENDBRANCH  13  14
ENDBRANCH   1  13
TORSDOF 16
ENDMDL
MODEL 5
REMARK VINA RESULT:    -5.614      6.987      9.573
REMARK INTER + INTRA:         -10.132
REMARK INTER:                 -10.682
REMARK INTRA:                   0.549
REMARK UNBOUND:                 0.568
REMARK  Name = 3210
REMARK                            x       y       z     vdW  Elec       q    Type
REMARK                         _______ _______ _______ _____ _____    ______ ____
ROOT
ATOM      1  C   LIG    1       49.131  61.989  37.229  0.00  0.00    +0.004 C 
ENDROOT
BRANCH   1   2
ATOM      2  C   LIG    1       48.874  62.463  36.386  0.00  0.00    +0.000 C 
BRANCH   2   3
ATOM      3  C   LIG    1       49.530  63.065  35.931  0.00  0.00    +0.000 C 
BRANCH   3   4
ATOM      4  C   LIG    1       49.314  63.455  35.036  0.00  0.00    +0.000 C 
BRANCH   4   5
ATOM      5  C   LIG    1       49.920  64.138  34.629  0.00  0.00    +0.000 C 
BRANCH   5   6
ATOM      6  C   LIG    1       49.834  64.369  33.660  0.00  0.00    +0.001 C 
BRANCH   6   7
ATOM      7  C   LIG    1       50.516  64.954  33.222  0.00  0.00    +0.011 C 
BRANCH   7   8
ATOM      8  C   LIG    1       50.316  65.385  32.343  0.00  0.00    +0.120 C 
BRANCH   8   9
ATOM      9  C   LIG    1       51.032  65.885  31.856  0.00  0.00    +0.305 C 
ATOM     10  O   LIG    1       51.705  66.419  32.368  0.00  0.00    -0.251 OA
BRANCH   9  11
ATOM     11  O   LIG    1       51.074  65.852  30.857  0.00  0.00    -0.481 OA
ATOM     12  H   LIG    1       51.510  65.512  30.577  0.00  0.00    +0.295 HD
ENDBRANCH   9  11
ENDBRANCH   8   9
ENDBRANCH   7   8
ENDBRANCH   6   7
ENDBRANCH   5   6
ENDBRANCH   4   5
ENDBRANCH   3   4
ENDBRANCH   2   3
ENDBRANCH   1   2
BRANCH   1  13
ATOM     13  C   LIG    1       48.751  62.286  38.105  0.00  0.00    +0.027 C 
BRANCH  13  14
ATOM     14  C   LIG    1       49.190  62.009  38.959  0.00  0.00    -0.031 C 
ATOM     15  C   LIG    1       48.686  61.456  39.624  0.00  0.00    -0.027 C 
BRANCH  15  16
ATOM     16  C   LIG    1       49.125  61.179  40.478  0.00  0.00    +0.053 C 
BRANCH  16  17
ATOM     17  C   LIG    1       49.270  60.210  40.675  0.00  0.00    -0.027 C 
ATOM     18  C   LIG    1       49.517  59.918  41.599  0.00  0.00    -0.027 C 
BRANCH  18  19
ATOM     19  C   LIG    1       49.662  58.948  41.795  0.00  0.00    +0.053 C 
BRANCH  19  20
ATOM     20  C   LIG    1       50.570  58.546  41.682  0.00  0.00    -0.027 C 
ATOM     21  C   LIG    1       50.804  57.698  42.158  0.00  0.00    -0.031 C 
BRANCH  21  22
ATOM     22  C   LIG    1       51.712  57.296  42.045  0.00  0.00    +0.023 C 
ATOM     23  C   LIG    1       51.957  56.466  42.546  0.00  0.00    +0.008 C 
ENDBRANCH  21  22
ENDBRANCH  19  20
ENDBRANCH  18  19
ENDBRANCH  16  17
ENDBRANCH  15  16
ENDBRANCH  13  14
ENDBRANCH   1  13
TORSDOF 16
ENDMDL
MODEL 6
REMARK VINA RESULT:    -5.125      7.492      9.004
REMARK INTER + INTRA:          -9.200
REMARK INTER:                 -10.001
REMARK INTRA:                   0.801
REMARK UNBOUND:                 0.568
REMARK  Name = 3210
REMARK                            x       y       z     vdW  Elec       q    Type
REMARK                         _______ _______ _______ _____ _____    ______ ____
ROOT
ATOM      1  C   LIG    1       50.122  62.491  38.109  0.00  0.00    +0.004 C 
ENDROOT
BRANCH   1   2
ATOM      2  C   LIG    1       50.799  63.225  38.053  0.00  0.00    +0.000 C 
BRANCH   2   3
ATOM      3  C   LIG    1       51.377  63.311  37.242  0.00  0.00    +0.000 C 
BRANCH   3   4
ATOM      4  C   LIG    1       51.717  64.209  36.963  0.00  0.00    +0.000 C 
BRANCH   4   5
ATOM      5  C   LIG    1       52.126  64.330  36.058  0.00  0.00    +0.000 C 
BRANCH   5   6
ATOM      6  C   LIG    1       52.025  65.200  35.576  0.00  0.00    +0.001 C 
BRANCH   6   7
ATOM      7  C   LIG    1       52.010  65.219  34.576  0.00  0.00    +0.011 C 
BRANCH   7   8
ATOM      8  C   LIG    1       51.752  66.057  34.096  0.00  0.00    +0.120 C 
BRANCH   8   9
ATOM      9  C   LIG    1       51.580  66.036  33.111  0.00  0.00    +0.305 C 
ATOM     10  O   LIG    1       50.678  66.281  32.755  0.00  0.00    -0.251 OA
BRANCH   9  11
ATOM     11  O   LIG    1       52.311  65.771  32.482  0.00  0.00    -0.481 OA
ATOM     12  H   LIG    1       52.621  66.205  32.167  0.00  0.00    +0.295 HD
ENDBRANCH   9  11
ENDBRANCH   8   9
ENDBRANCH   7   8
ENDBRANCH   6   7
ENDBRANCH   5   6
ENDBRANCH   4   5
ENDBRANCH   3   4
ENDBRANCH   2   3
ENDBRANCH   1   2
BRANCH   1  13
ATOM     13  C   LIG    1       49.476  62.464  38.872  0.00  0.00    +0.027 C 
BRANCH  13  14
ATOM     14  C   LIG    1       49.718  61.987  39.716  0.00  0.00    -0.031 C 
ATOM     15  C   LIG    1       49.087  61.321  40.113  0.00  0.00    -0.027 C 
BRANCH  15  16
ATOM     16  C   LIG    1       49.329  60.843  40.958  0.00  0.00    +0.053 C 
BRANCH  16  17
ATOM     17  C   LIG    1       49.263  59.847  41.005  0.00  0.00    -0.027 C 
ATOM     18  C   LIG    1       49.609  59.360  41.808  0.00  0.00    -0.027 C 
BRANCH  18  19
ATOM     19  C   LIG    1       49.542  58.364  41.855  0.00  0.00    +0.053 C 
BRANCH  19  20
ATOM     20  C   LIG    1       48.646  57.921  41.847  0.00  0.00    -0.027 C 
ATOM     21  C   LIG    1       48.548  56.982  42.176  0.00  0.00    -0.031 C 
BRANCH  21  22
ATOM     22  C   LIG    1       47.651  56.540  42.168  0.00  0.00    +0.023 C 
ATOM     23  C   LIG    1       47.374  55.958  42.933  0.00  0.00    +0.008 C 
ENDBRANCH  21  22
ENDBRANCH  19  20
ENDBRANCH  18  19
ENDBRANCH  16  17
ENDBRANCH  15  16
ENDBRANCH  13  14
ENDBRANCH   1  13
TORSDOF 16
ENDMDL
MODEL 7
REMARK VINA RESULT:    -4.941      6.792      9.490
REMARK INTER + INTRA:          -8.851
REMARK INTER:                  -9.577
REMARK INTRA:                   0.726
REMARK UNBOUND:                 0.568
REMARK  Name = 3210
REMARK                            x       y       z     vdW  Elec       q    Type
REMARK                         _______ _______ _______ _____ _____    ______ ____
ROOT
ATOM      1  C   LIG    1       49.662  62.266  36.595  0.00  0.00    +0.004 C 
ENDROOT
BRANCH   1   2
ATOM      2  C   LIG    1       49.347  62.858  35.854  0.00  0.00    +0.000 C 
BRANCH   2   3
ATOM      3  C   LIG    1       49.988  63.476  35.400  0.00  0.00    +0.000 C 
BRANCH   3   4
ATOM      4  C   LIG    1       49.920  63.633  34.415  0.00  0.00    +0.000 C 
BRANCH   4   5
ATOM      5  C   LIG    1       50.709  63.464  33.825  0.00  0.00    +0.000 C 
BRANCH   5   6
ATOM      6  C   LIG    1       50.589  63.400  32.834  0.00  0.00    +0.001 C 
BRANCH   6   7
ATOM      7  C   LIG    1       50.929  62.600  32.340  0.00  0.00    +0.011 C 
BRANCH   7   8
ATOM      8  C   LIG    1       51.791  62.652  31.836  0.00  0.00    +0.120 C 
BRANCH   8   9
ATOM      9  C   LIG    1       51.952  62.047  31.057  0.00  0.00    +0.305 C 
ATOM     10  O   LIG    1       51.690  61.083  31.110  0.00  0.00    -0.251 OA
BRANCH   9  11
ATOM     11  O   LIG    1       52.376  62.405  30.225  0.00  0.00    -0.481 OA
ATOM     12  H   LIG    1       52.167  62.226  29.669  0.00  0.00    +0.295 HD
ENDBRANCH   9  11
ENDBRANCH   8   9
ENDBRANCH   7   8
ENDBRANCH   6   7
ENDBRANCH   5   6
ENDBRANCH   4   5
ENDBRANCH   3   4
ENDBRANCH   2   3
ENDBRANCH   1   2
BRANCH   1  13
ATOM     13  C   LIG    1       49.210  62.295  37.486  0.00  0.00    +0.027 C 
BRANCH  13  14
ATOM     14  C   LIG    1       49.705  62.016  38.308  0.00  0.00    -0.031 C 
ATOM     15  C   LIG    1       49.380  61.240  38.849  0.00  0.00    -0.027 C 
BRANCH  15  16
ATOM     16  C   LIG    1       49.876  60.961  39.672  0.00  0.00    +0.053 C 
BRANCH  16  17
ATOM     17  C   LIG    1       50.346  60.079  39.696  0.00  0.00    -0.027 C 
ATOM     18  C   LIG    1       50.470  59.603  40.567  0.00  0.00    -0.027 C 
BRANCH  18  19
ATOM     19  C   LIG    1       50.940  58.721  40.592  0.00  0.00    +0.053 C 
BRANCH  19  20
ATOM     20  C   LIG    1       50.942  58.179  41.432  0.00  0.00    -0.027 C 
ATOM     21  C   LIG    1       51.666  57.508  41.592  0.00  0.00    -0.031 C 
BRANCH  21  22
ATOM     22  C   LIG    1       51.668  56.966  42.433  0.00  0.00    +0.023 C 
ATOM     23  C   LIG    1       52.535  56.673  42.837  0.00  0.00    +0.008 C 
ENDBRANCH  21  22
ENDBRANCH  19  20
ENDBRANCH  18  19
ENDBRANCH  16  17
ENDBRANCH  15  16
ENDBRANCH  13  14
ENDBRANCH   1  13
TORSDOF 16
ENDMDL
MODEL 8
REMARK VINA RESULT:    -4.906      6.615      8.862
REMARK INTER + INTRA:          -8.783
REMARK INTER:                  -9.776
REMARK INTRA:                   0.993
REMARK UNBOUND:                 0.568
REMARK  Name = 3210
REMARK                            x       y       z     vdW  Elec       q    Type
REMARK                         _______ _______ _______ _____ _____    ______ ____
ROOT
ATOM      1  C   LIG    1       49.681  62.146  37.611  0.00  0.00    +0.004 C 
ENDROOT
BRANCH   1   2
ATOM      2  C   LIG    1       49.457  62.700  36.810  0.00  0.00    +0.000 C 
BRANCH   2   3
ATOM      3  C   LIG    1       50.116  62.789  36.063  0.00  0.00    +0.000 C 
BRANCH   3   4
ATOM      4  C   LIG    1       50.544  63.674  35.877  0.00  0.00    +0.000 C 
BRANCH   4   5
ATOM      5  C   LIG    1       51.540  63.748  35.832  0.00  0.00    +0.000 C 
BRANCH   5   6
ATOM      6  C   LIG    1       51.963  64.530  35.376  0.00  0.00    +0.001 C 
BRANCH   6   7
ATOM      7  C   LIG    1       52.628  64.383  34.643  0.00  0.00    +0.011 C 
BRANCH   7   8
ATOM      8  C   LIG    1       53.546  64.773  34.715  0.00  0.00    +0.120 C 
BRANCH   8   9
ATOM      9  C   LIG    1       54.246  64.532  34.044  0.00  0.00    +0.305 C 
ATOM     10  O   LIG    1       53.981  64.124  33.170  0.00  0.00    -0.251 OA
BRANCH   9  11
ATOM     11  O   LIG    1       55.211  64.698  34.246  0.00  0.00    -0.481 OA
ATOM     12  H   LIG    1       55.588  64.916  33.804  0.00  0.00    +0.295 HD
ENDBRANCH   9  11
ENDBRANCH   8   9
ENDBRANCH   7   8
ENDBRANCH   6   7
ENDBRANCH   5   6
ENDBRANCH   4   5
ENDBRANCH   3   4
ENDBRANCH   2   3
ENDBRANCH   1   2
BRANCH   1  13
ATOM     13  C   LIG    1       49.163  62.258  38.459  0.00  0.00    +0.027 C 
BRANCH  13  14
ATOM     14  C   LIG    1       49.526  61.900  39.319  0.00  0.00    -0.031 C 
ATOM     15  C   LIG    1       49.098  61.105  39.749  0.00  0.00    -0.027 C 
BRANCH  15  16
ATOM     16  C   LIG    1       49.461  60.746  40.609  0.00  0.00    +0.053 C 
BRANCH  16  17
ATOM     17  C   LIG    1       49.737  59.787  40.674  0.00  0.00    -0.027 C 
ATOM     18  C   LIG    1       49.848  59.359  41.571  0.00  0.00    -0.027 C 
BRANCH  18  19
ATOM     19  C   LIG    1       50.124  58.400  41.636  0.00  0.00    +0.053 C 
BRANCH  19  20
ATOM     20  C   LIG    1       51.083  58.165  41.794  0.00  0.00    -0.027 C 
ATOM     21  C   LIG    1       51.326  57.254  42.130  0.00  0.00    -0.031 C 
BRANCH  21  22
ATOM     22  C   LIG    1       52.285  57.019  42.289  0.00  0.00    +0.023 C 
ATOM     23  C   LIG    1       52.521  56.154  42.731  0.00  0.00    +0.008 C 
ENDBRANCH  21  22
ENDBRANCH  19  20
ENDBRANCH  18  19
ENDBRANCH  16  17
ENDBRANCH  15  16
ENDBRANCH  13  14
ENDBRANCH   1  13
TORSDOF 16
ENDMDL
MODEL 9
REMARK VINA RESULT:    -4.798      7.138      8.294
REMARK INTER + INTRA:          -8.577
REMARK INTER:                  -9.566
REMARK INTRA:                   0.989
REMARK UNBOUND:                 0.568
REMARK  Name = 3210
REMARK                            x       y       z     vdW  Elec       q    Type
REMARK                         _______ _______ _______ _____ _____    ______ ____
ROOT
ATOM      1  C   LIG    1       50.335  62.619  38.360  0.00  0.00    +0.004 C 
ENDROOT
BRANCH   1   2
ATOM      2  C   LIG    1       50.866  63.462  38.448  0.00  0.00    +0.000 C 
BRANCH   2   3
ATOM      3  C   LIG    1       51.308  63.860  37.644  0.00  0.00    +0.000 C 
BRANCH   3   4
ATOM      4  C   LIG    1       51.978  63.328  37.126  0.00  0.00    +0.000 C 
BRANCH   4   5
ATOM      5  C   LIG    1       52.521  63.768  36.411  0.00  0.00    +0.000 C 
BRANCH   5   6
ATOM      6  C   LIG    1       53.465  63.479  36.252  0.00  0.00    +0.001 C 
BRANCH   6   7
ATOM      7  C   LIG    1       54.095  64.078  35.759  0.00  0.00    +0.011 C 
BRANCH   7   8
ATOM      8  C   LIG    1       55.080  63.909  35.797  0.00  0.00    +0.120 C 
BRANCH   8   9
ATOM      9  C   LIG    1       55.718  64.582  35.422  0.00  0.00    +0.305 C 
ATOM     10  O   LIG    1       56.219  65.192  36.036  0.00  0.00    -0.251 OA
BRANCH   9  11
ATOM     11  O   LIG    1       55.855  64.644  34.434  0.00  0.00    -0.481 OA
ATOM     12  H   LIG    1       56.358  64.391  34.173  0.00  0.00    +0.295 HD
ENDBRANCH   9  11
ENDBRANCH   8   9
ENDBRANCH   7   8
ENDBRANCH   6   7
ENDBRANCH   5   6
ENDBRANCH   4   5
ENDBRANCH   3   4
ENDBRANCH   2   3
ENDBRANCH   1   2
BRANCH   1  13
ATOM     13  C   LIG    1       49.568  62.445  38.978  0.00  0.00    +0.027 C 
BRANCH  13  14
ATOM     14  C   LIG    1       49.720  61.961  39.840  0.00  0.00    -0.031 C 
ATOM     15  C   LIG    1       49.076  61.257  40.138  0.00  0.00    -0.027 C 
BRANCH  15  16
ATOM     16  C   LIG    1       49.228  60.773  41.000  0.00  0.00    +0.053 C 
BRANCH  16  17
ATOM     17  C   LIG    1       49.171  59.775  41.030  0.00  0.00    -0.027 C 
ATOM     18  C   LIG    1       49.319  59.292  41.893  0.00  0.00    -0.027 C 
BRANCH  18  19
ATOM     19  C   LIG    1       49.261  58.294  41.923  0.00  0.00    +0.053 C 
BRANCH  19  20
ATOM     20  C   LIG    1       48.369  57.844  41.896  0.00  0.00    -0.027 C 
ATOM     21  C   LIG    1       48.276  56.898  42.206  0.00  0.00    -0.031 C 
BRANCH  21  22
ATOM     22  C   LIG    1       47.384  56.447  42.179  0.00  0.00    +0.023 C 
ATOM     23  C   LIG    1       47.099  55.856  42.933  0.00  0.00    +0.008 C 
ENDBRANCH  21  22
ENDBRANCH  19  20
ENDBRANCH  18  19
ENDBRANCH  16  17
ENDBRANCH  15  16
ENDBRANCH  13  14
ENDBRANCH   1  13
TORSDOF 16
ENDMDL
